
Version,
  7.2;                                    !- Version Identifier

SimulationControl,
  Yes,                                    !- Do Zone Sizing Calculation
  Yes,                                    !- Do System Sizing Calculation
  Yes,                                    !- Do Plant Sizing Calculation
  Yes,                                    !- Run Simulation for Sizing Periods
  Yes;                                    !- Run Simulation for Weather File Run Periods

ProgramControl,
  1;                                      !- Number of Threads Allowed

Sizing:Parameters,
  1.25,                                   !- Heating Sizing Factor
  1.15;                                   !- Cooling Sizing Factor

RunPeriod,
  Run Period 1,                           !- Name
  1,                                      !- Begin Month
  1,                                      !- Begin Day of Month
  12,                                     !- End Month
  31,                                     !- End Day of Month
  Thursday,                               !- Day of Week for Start Day
  Yes,                                    !- Use Weather File Holidays and Special Days
  Yes,                                    !- Use Weather File Daylight Saving Period
  No,                                     !- Apply Weekend Holiday Rule
  Yes,                                    !- Use Weather File Rain Indicators
  Yes,                                    !- Use Weather File Snow Indicators
  1;                                      !- Number of Times Runperiod to be Repeated

GlobalGeometryRules,
  UpperLeftCorner,                        !- Starting Vertex Position
  Counterclockwise,                       !- Vertex Entry Direction
  Relative,                               !- Coordinate System
  Relative,                               !- Daylighting Reference Point Coordinate System
  Relative;                               !- Rectangular Surface Coordinate System

ScheduleTypeLimits,
  OnOff,                                  !- Name
  0,                                      !- Lower Limit Value {BasedOnField A3}
  1,                                      !- Upper Limit Value {BasedOnField A3}
  Discrete,                               !- Numeric Type
  availability;                           !- Unit Type

ScheduleTypeLimits,
  Temperature 2,                          !- Name
  ,                                       !- Lower Limit Value {BasedOnField A3}
  ,                                       !- Upper Limit Value {BasedOnField A3}
  Continuous,                             !- Numeric Type
  temperature;                            !- Unit Type

ScheduleTypeLimits,
  Temperature,                            !- Name
  ,                                       !- Lower Limit Value {BasedOnField A3}
  ,                                       !- Upper Limit Value {BasedOnField A3}
  Continuous,                             !- Numeric Type
  temperature;                            !- Unit Type

ScheduleTypeLimits,
  Temperature 1,                          !- Name
  ,                                       !- Lower Limit Value {BasedOnField A3}
  ,                                       !- Upper Limit Value {BasedOnField A3}
  Continuous,                             !- Numeric Type
  temperature;                            !- Unit Type

ScheduleTypeLimits,
  Temperature 3,                          !- Name
  ,                                       !- Lower Limit Value {BasedOnField A3}
  ,                                       !- Upper Limit Value {BasedOnField A3}
  Continuous,                             !- Numeric Type
  temperature;                            !- Unit Type

Schedule:Day:Interval,
  Always_On_Default,                      !- Name
  OnOff,                                  !- Schedule Type Limits Name
  No,                                     !- Interpolate to Timestep
  24:00,                                  !- Time 1 {hh:mm}
  1;                                      !- Value Until Time 1

Schedule:Day:Interval,
  Cooling Sch Default,                    !- Name
  Temperature 3,                          !- Schedule Type Limits Name
  No,                                     !- Interpolate to Timestep
  24:00,                                  !- Time 1 {hh:mm}
  28;                                     !- Value Until Time 1

Schedule:Day:Interval,
  Deck_Temperature_Default,               !- Name
  Temperature,                            !- Schedule Type Limits Name
  No,                                     !- Interpolate to Timestep
  24:00,                                  !- Time 1 {hh:mm}
  12.8;                                   !- Value Until Time 1

Schedule:Day:Interval,
  Deck_Temperature_Summer_Design_Day,     !- Name
  Temperature,                            !- Schedule Type Limits Name
  No,                                     !- Interpolate to Timestep
  24:00,                                  !- Time 1 {hh:mm}
  12.8;                                   !- Value Until Time 1

Schedule:Day:Interval,
  Always_On_Summer_Design_Day,            !- Name
  OnOff,                                  !- Schedule Type Limits Name
  No,                                     !- Interpolate to Timestep
  24:00,                                  !- Time 1 {hh:mm}
  1;                                      !- Value Until Time 1

Schedule:Day:Interval,
  Hot_Water_Temperature_Default,          !- Name
  Temperature 1,                          !- Schedule Type Limits Name
  No,                                     !- Interpolate to Timestep
  24:00,                                  !- Time 1 {hh:mm}
  67;                                     !- Value Until Time 1

Schedule:Day:Interval,
  Chilled_Water_Temperature_Summer_Design_Day, !- Name
  ,                                       !- Schedule Type Limits Name
  No,                                     !- Interpolate to Timestep
  24:00,                                  !- Time 1 {hh:mm}
  6.7;                                    !- Value Until Time 1

Schedule:Day:Interval,
  Hot_Water_Temperature_Summer_Design_Day, !- Name
  Temperature 1,                          !- Schedule Type Limits Name
  No,                                     !- Interpolate to Timestep
  24:00,                                  !- Time 1 {hh:mm}
  67;                                     !- Value Until Time 1

Schedule:Day:Interval,
  Hot_Water_Temperature_Winter_Design_Day, !- Name
  Temperature 1,                          !- Schedule Type Limits Name
  No,                                     !- Interpolate to Timestep
  24:00,                                  !- Time 1 {hh:mm}
  67;                                     !- Value Until Time 1

Schedule:Day:Interval,
  Chilled_Water_Temperature_Default,      !- Name
  ,                                       !- Schedule Type Limits Name
  No,                                     !- Interpolate to Timestep
  24:00,                                  !- Time 1 {hh:mm}
  6.7;                                    !- Value Until Time 1

Schedule:Day:Interval,
  Chilled_Water_Temperature_Winter_Design_Day, !- Name
  ,                                       !- Schedule Type Limits Name
  No,                                     !- Interpolate to Timestep
  24:00,                                  !- Time 1 {hh:mm}
  6.7;                                    !- Value Until Time 1

Schedule:Day:Interval,
  Deck_Temperature_Winter_Design_Day,     !- Name
  Temperature,                            !- Schedule Type Limits Name
  No,                                     !- Interpolate to Timestep
  24:00,                                  !- Time 1 {hh:mm}
  12.8;                                   !- Value Until Time 1

Schedule:Day:Interval,
  Always_On_Winter_Design_Day,            !- Name
  OnOff,                                  !- Schedule Type Limits Name
  No,                                     !- Interpolate to Timestep
  24:00,                                  !- Time 1 {hh:mm}
  1;                                      !- Value Until Time 1

Schedule:Day:Interval,
  Heating Sch Default,                    !- Name
  Temperature 2,                          !- Schedule Type Limits Name
  No,                                     !- Interpolate to Timestep
  24:00,                                  !- Time 1 {hh:mm}
  24;                                     !- Value Until Time 1

Schedule:Week:Daily,
  Schedule:Week:Daily {f03dc124-67a1-408a-841a-0fe519408a13}, !- Name
  Chilled_Water_Temperature_Default,      !- Sunday Schedule:Day Name
  Chilled_Water_Temperature_Default,      !- Monday Schedule:Day Name
  Chilled_Water_Temperature_Default,      !- Tuesday Schedule:Day Name
  Chilled_Water_Temperature_Default,      !- Wednesday Schedule:Day Name
  Chilled_Water_Temperature_Default,      !- Thursday Schedule:Day Name
  Chilled_Water_Temperature_Default,      !- Friday Schedule:Day Name
  Chilled_Water_Temperature_Default,      !- Saturday Schedule:Day Name
  Chilled_Water_Temperature_Default,      !- Holiday Schedule:Day Name
  Chilled_Water_Temperature_Summer_Design_Day, !- SummerDesignDay Schedule:Day Name
  Chilled_Water_Temperature_Winter_Design_Day, !- WinterDesignDay Schedule:Day Name
  Chilled_Water_Temperature_Default,      !- CustomDay1 Schedule:Day Name
  Chilled_Water_Temperature_Default;      !- CustomDay2 Schedule:Day Name

Schedule:Year,
  Chilled_Water_Temperature,              !- Name
  ,                                       !- Schedule Type Limits Name
  Schedule:Week:Daily {f03dc124-67a1-408a-841a-0fe519408a13}, !- Schedule:Week Name 1
  1,                                      !- Start Month 1
  1,                                      !- Start Day 1
  12,                                     !- End Month 1
  31;                                     !- End Day 1

Schedule:Week:Daily,
  Schedule:Week:Daily {1266d720-18cf-4be1-b08b-be8ddd3b7064}, !- Name
  Hot_Water_Temperature_Default,          !- Sunday Schedule:Day Name
  Hot_Water_Temperature_Default,          !- Monday Schedule:Day Name
  Hot_Water_Temperature_Default,          !- Tuesday Schedule:Day Name
  Hot_Water_Temperature_Default,          !- Wednesday Schedule:Day Name
  Hot_Water_Temperature_Default,          !- Thursday Schedule:Day Name
  Hot_Water_Temperature_Default,          !- Friday Schedule:Day Name
  Hot_Water_Temperature_Default,          !- Saturday Schedule:Day Name
  Hot_Water_Temperature_Default,          !- Holiday Schedule:Day Name
  Hot_Water_Temperature_Summer_Design_Day, !- SummerDesignDay Schedule:Day Name
  Hot_Water_Temperature_Winter_Design_Day, !- WinterDesignDay Schedule:Day Name
  Hot_Water_Temperature_Default,          !- CustomDay1 Schedule:Day Name
  Hot_Water_Temperature_Default;          !- CustomDay2 Schedule:Day Name

Schedule:Year,
  Hot_Water_Temperature,                  !- Name
  Temperature 1,                          !- Schedule Type Limits Name
  Schedule:Week:Daily {1266d720-18cf-4be1-b08b-be8ddd3b7064}, !- Schedule:Week Name 1
  1,                                      !- Start Month 1
  1,                                      !- Start Day 1
  12,                                     !- End Month 1
  31;                                     !- End Day 1

Schedule:Week:Daily,
  Schedule:Week:Daily {39510941-f1c2-4174-b208-f5e73ad559c2}, !- Name
  Cooling Sch Default,                    !- Sunday Schedule:Day Name
  Cooling Sch Default,                    !- Monday Schedule:Day Name
  Cooling Sch Default,                    !- Tuesday Schedule:Day Name
  Cooling Sch Default,                    !- Wednesday Schedule:Day Name
  Cooling Sch Default,                    !- Thursday Schedule:Day Name
  Cooling Sch Default,                    !- Friday Schedule:Day Name
  Cooling Sch Default,                    !- Saturday Schedule:Day Name
  Cooling Sch Default,                    !- Holiday Schedule:Day Name
  Cooling Sch Default,                    !- SummerDesignDay Schedule:Day Name
  Cooling Sch Default,                    !- WinterDesignDay Schedule:Day Name
  Cooling Sch Default,                    !- CustomDay1 Schedule:Day Name
  Cooling Sch Default;                    !- CustomDay2 Schedule:Day Name

Schedule:Year,
  Cooling Sch,                            !- Name
  Temperature 3,                          !- Schedule Type Limits Name
  Schedule:Week:Daily {39510941-f1c2-4174-b208-f5e73ad559c2}, !- Schedule:Week Name 1
  1,                                      !- Start Month 1
  1,                                      !- Start Day 1
  12,                                     !- End Month 1
  31;                                     !- End Day 1

Schedule:Week:Daily,
  Schedule:Week:Daily {e79a834d-e844-4a90-8f61-6a7b789ef8dc}, !- Name
  Deck_Temperature_Default,               !- Sunday Schedule:Day Name
  Deck_Temperature_Default,               !- Monday Schedule:Day Name
  Deck_Temperature_Default,               !- Tuesday Schedule:Day Name
  Deck_Temperature_Default,               !- Wednesday Schedule:Day Name
  Deck_Temperature_Default,               !- Thursday Schedule:Day Name
  Deck_Temperature_Default,               !- Friday Schedule:Day Name
  Deck_Temperature_Default,               !- Saturday Schedule:Day Name
  Deck_Temperature_Default,               !- Holiday Schedule:Day Name
  Deck_Temperature_Summer_Design_Day,     !- SummerDesignDay Schedule:Day Name
  Deck_Temperature_Winter_Design_Day,     !- WinterDesignDay Schedule:Day Name
  Deck_Temperature_Default,               !- CustomDay1 Schedule:Day Name
  Deck_Temperature_Default;               !- CustomDay2 Schedule:Day Name

Schedule:Year,
  Deck_Temperature,                       !- Name
  Temperature,                            !- Schedule Type Limits Name
  Schedule:Week:Daily {e79a834d-e844-4a90-8f61-6a7b789ef8dc}, !- Schedule:Week Name 1
  1,                                      !- Start Month 1
  1,                                      !- Start Day 1
  12,                                     !- End Month 1
  31;                                     !- End Day 1

Schedule:Week:Daily,
  Schedule:Week:Daily {d7981a8f-4bd6-49dc-8549-a6abd14a289d}, !- Name
  Always_On_Default,                      !- Sunday Schedule:Day Name
  Always_On_Default,                      !- Monday Schedule:Day Name
  Always_On_Default,                      !- Tuesday Schedule:Day Name
  Always_On_Default,                      !- Wednesday Schedule:Day Name
  Always_On_Default,                      !- Thursday Schedule:Day Name
  Always_On_Default,                      !- Friday Schedule:Day Name
  Always_On_Default,                      !- Saturday Schedule:Day Name
  Always_On_Default,                      !- Holiday Schedule:Day Name
  Always_On_Summer_Design_Day,            !- SummerDesignDay Schedule:Day Name
  Always_On_Winter_Design_Day,            !- WinterDesignDay Schedule:Day Name
  Always_On_Default,                      !- CustomDay1 Schedule:Day Name
  Always_On_Default;                      !- CustomDay2 Schedule:Day Name

Schedule:Year,
  Always_On,                              !- Name
  OnOff,                                  !- Schedule Type Limits Name
  Schedule:Week:Daily {d7981a8f-4bd6-49dc-8549-a6abd14a289d}, !- Schedule:Week Name 1
  1,                                      !- Start Month 1
  1,                                      !- Start Day 1
  12,                                     !- End Month 1
  31;                                     !- End Day 1

Schedule:Week:Daily,
  Schedule:Week:Daily {9f16e8c4-d746-497d-9575-f4923f76c67d}, !- Name
  Heating Sch Default,                    !- Sunday Schedule:Day Name
  Heating Sch Default,                    !- Monday Schedule:Day Name
  Heating Sch Default,                    !- Tuesday Schedule:Day Name
  Heating Sch Default,                    !- Wednesday Schedule:Day Name
  Heating Sch Default,                    !- Thursday Schedule:Day Name
  Heating Sch Default,                    !- Friday Schedule:Day Name
  Heating Sch Default,                    !- Saturday Schedule:Day Name
  Heating Sch Default,                    !- Holiday Schedule:Day Name
  Heating Sch Default,                    !- SummerDesignDay Schedule:Day Name
  Heating Sch Default,                    !- WinterDesignDay Schedule:Day Name
  Heating Sch Default,                    !- CustomDay1 Schedule:Day Name
  Heating Sch Default;                    !- CustomDay2 Schedule:Day Name

Schedule:Year,
  Heating Sch,                            !- Name
  Temperature 2,                          !- Schedule Type Limits Name
  Schedule:Week:Daily {9f16e8c4-d746-497d-9575-f4923f76c67d}, !- Schedule:Week Name 1
  1,                                      !- Start Month 1
  1,                                      !- Start Day 1
  12,                                     !- End Month 1
  31;                                     !- End Day 1

AirLoopHVAC,
  Air Loop HVAC 1,                        !- Name
  Air Loop HVAC 1 Controllers,            !- Controller List Name
  AvailabilityManagerAssignmentList {f25c2dd3-1ca5-4940-8dc5-91bcf748fdcc}, !- Availability Manager List Name
  AutoSize,                               !- Design Supply Air Flow Rate {m3/s}
  BranchList {7082b75c-6542-4261-893d-e9eaa16b11c1}, !- Branch List Name
  ,                                       !- Connector List Name
  Node 16,                                !- Supply Side Inlet Node Name
  Node 19,                                !- Demand Side Outlet Node Name
  Node 18,                                !- Demand Side Inlet Node Names
  Node 17;                                !- Supply Side Outlet Node Names

Sizing:System,
  Air Loop HVAC 1,                        !- AirLoop Name
  Sensible,                               !- Type of Load to Size On
  Autosize,                               !- Design Outdoor Air Flow Rate {m3/s}
  0.3,                                    !- Minimum System Air Flow Ratio
  7,                                      !- Preheat Design Temperature {C}
  0.008,                                  !- Preheat Design Humidity Ratio {kgWater/kgDryAir}
  12.8,                                   !- Precool Design Temperature {C}
  0.008,                                  !- Precool Design Humidity Ratio {kgWater/kgDryAir}
  12.8,                                   !- Central Cooling Design Supply Air Temperature {C}
  12.8,                                   !- Central Heating Design Supply Air Temperature {C}
  NonCoincident,                          !- Sizing Option
  Yes,                                    !- 100% Outdoor Air in Cooling
  Yes,                                    !- 100% Outdoor Air in Heating
  0.0085,                                 !- Central Cooling Design Supply Air Humidity Ratio {kgWater/kgDryAir}
  0.008,                                  !- Central Heating Design Supply Air Humidity Ratio {kgWater/kgDryAir}
  DesignDay,                              !- Cooling Design Air Flow Method
  0,                                      !- Cooling Design Air Flow Rate {m3/s}
  DesignDay,                              !- Heating Design Air Flow Method
  0,                                      !- Heating Design Air Flow Rate {m3/s}
  ZoneSum;                                !- System Outdoor Air Method

AirLoopHVAC:ControllerList,
  Air Loop HVAC 1 Controllers,            !- Name
  Controller:WaterCoil,                   !- Controller Object Type 1
  Controller Water Coil 1;                !- Controller Name 1

Controller:WaterCoil,
  Controller Water Coil 1,                !- Name
  Temperature,                            !- Control Variable
  Normal,                                 !- Action
  Flow,                                   !- Actuator Variable
  Node 25,                                !- Sensor Node Name
  Node 31,                                !- Actuator Node Name
  Autosize,                               !- Controller Convergence Tolerance {deltaC}
  Autosize,                               !- Maximum Actuated Flow {m3/s}
  1e-07;                                  !- Minimum Actuated Flow {m3/s}

AvailabilityManagerAssignmentList,
  AvailabilityManagerAssignmentList {f25c2dd3-1ca5-4940-8dc5-91bcf748fdcc}, !- Name
  AvailabilityManager:Scheduled,          !- Availability Manager Object Type 1
  AvailabilityManager:Scheduled {444a0098-d082-48d8-96f9-fbd10a485aca}; !- Availability Manager Name 1

AvailabilityManager:Scheduled,
  AvailabilityManager:Scheduled {444a0098-d082-48d8-96f9-fbd10a485aca}, !- Name
  Schedule:Compact {2f3edb90-3a9b-4576-9538-f4a1ff6df417}; !- Schedule Name

Schedule:Compact,
  Schedule:Compact {2f3edb90-3a9b-4576-9538-f4a1ff6df417}, !- Name
  ,                                       !- Schedule Type Limits Name
  Through: 12/31,                         !- Field 1
  For: AllDays,                           !- Field 2
  Until: 24:00,                           !- Field 3
  1.0;                                    !- Field 4

BranchList,
  BranchList {7082b75c-6542-4261-893d-e9eaa16b11c1}, !- Name
  Branch {e891390f-9f6f-4b89-b6b3-bcb095d060aa}; !- Branch Name 1

Branch,
  Branch {e891390f-9f6f-4b89-b6b3-bcb095d060aa}, !- Name
  AutoSize,                               !- Maximum Flow Rate {m3/s}
  ,                                       !- Pressure Drop Curve Name
  AirLoopHVAC:OutdoorAirSystem,           !- Component Object Type 1
  Air Loop HVAC Outdoor Air System 1,     !- Component Name 1
  Node 16,                                !- Component Inlet Node Name 1
  Node 23,                                !- Component Outlet Node Name 1
  Passive,                                !- Component Branch Control Type 1
  CoilSystem:Cooling:DX,                  !- Component Object Type 2
  Coil Cooling DX Two Speed 1 CoilSystem, !- Component Name 2
  Node 23,                                !- Component Inlet Node Name 2
  Node 24,                                !- Component Outlet Node Name 2
  Passive,                                !- Component Branch Control Type 2
  Coil:Heating:Water,                     !- Component Object Type 3
  Coil Heating Water 1,                   !- Component Name 3
  Node 24,                                !- Component Inlet Node Name 3
  Node 25,                                !- Component Outlet Node Name 3
  Passive,                                !- Component Branch Control Type 3
  Fan:VariableVolume,                     !- Component Object Type 4
  Fan Variable Volume 1,                  !- Component Name 4
  Node 25,                                !- Component Inlet Node Name 4
  Node 17,                                !- Component Outlet Node Name 4
  Passive;                                !- Component Branch Control Type 4

AirLoopHVAC:OutdoorAirSystem,
  Air Loop HVAC Outdoor Air System 1,     !- Name
  AirLoopHVAC:ControllerList {d7fae829-cd6c-4dad-803a-4778f89cbcac}, !- Controller List Name
  AirLoopHVAC:OutdoorAirSystem:EquipmentList {b2efedc2-49bc-4800-bb93-8a2dfb6eb707}, !- Outdoor Air Equipment List Name
  AvailabilityManagerAssignmentList {96eacabb-b0c3-4494-a794-57e99ffdc0c2}; !- Availability Manager List Name

AirLoopHVAC:ControllerList,
  AirLoopHVAC:ControllerList {d7fae829-cd6c-4dad-803a-4778f89cbcac}, !- Name
  Controller:OutdoorAir,                  !- Controller Object Type 1
  Controller Outdoor Air 1;               !- Controller Name 1

Controller:OutdoorAir,
  Controller Outdoor Air 1,               !- Name
  Node 22,                                !- Relief Air Outlet Node Name
  Node 16,                                !- Return Air Node Name
  Node 23,                                !- Mixed Air Node Name
  Node 21,                                !- Actuator Node Name
  Autosize,                               !- Minimum Outdoor Air Flow Rate {m3/s}
  Autosize,                               !- Maximum Outdoor Air Flow Rate {m3/s}
  FixedDryBulb,                           !- Economizer Control Type
  ModulateFlow,                           !- Economizer Control Action Type
  30,                                     !- Economizer Maximum Limit Dry-Bulb Temperature {C}
  64000,                                  !- Economizer Maximum Limit Enthalpy {J/kg}
  ,                                       !- Economizer Maximum Limit Dewpoint Temperature {C}
  ,                                       !- Electronic Enthalpy Limit Curve Name
  -100,                                   !- Economizer Minimum Limit Dry-Bulb Temperature {C}
  NoLockout,                              !- Lockout Type
  FixedMinimum,                           !- Minimum Limit Type
  ,                                       !- Minimum Outdoor Air Schedule Name
  ,                                       !- Minimum Fraction of Outdoor Air Schedule Name
  ,                                       !- Maximum Fraction of Outdoor Air Schedule Name
  ,                                       !- Mechanical Ventilation Controller Name
  ,                                       !- Time of Day Economizer Control Schedule Name
  No,                                     !- High Humidity Control
  ,                                       !- Humidistat Control Zone Name
  ,                                       !- High Humidity Outdoor Air Flow Ratio
  Yes,                                    !- Control High Indoor Humidity Based on Outdoor Humidity Ratio
  BypassWhenOAFlowGreaterThanMinimum;     !- Heat Recovery Bypass Control Type

AvailabilityManagerAssignmentList,
  AvailabilityManagerAssignmentList {96eacabb-b0c3-4494-a794-57e99ffdc0c2}, !- Name
  AvailabilityManager:Scheduled,          !- Availability Manager Object Type 1
  AvailabilityManager:Scheduled {16854e3c-27e7-44eb-b45b-a8f21e4549f5}; !- Availability Manager Name 1

AvailabilityManager:Scheduled,
  AvailabilityManager:Scheduled {16854e3c-27e7-44eb-b45b-a8f21e4549f5}, !- Name
  Schedule:Compact {f80d926a-7360-48e9-94a3-4167c03d9d74}; !- Schedule Name

Schedule:Compact,
  Schedule:Compact {f80d926a-7360-48e9-94a3-4167c03d9d74}, !- Name
  ,                                       !- Schedule Type Limits Name
  Through: 12/31,                         !- Field 1
  For: AllDays,                           !- Field 2
  Until: 24:00,                           !- Field 3
  1.0;                                    !- Field 4

OutdoorAir:NodeList,
  Node 21;                                !- Node or NodeList Name 1

AirLoopHVAC:OutdoorAirSystem:EquipmentList,
  AirLoopHVAC:OutdoorAirSystem:EquipmentList {b2efedc2-49bc-4800-bb93-8a2dfb6eb707}, !- Name
  OutdoorAir:Mixer,                       !- Component Object Type 1
  OutdoorAir:Mixer {9c27e1ee-994f-409a-8c00-f47bd9dc58f9}; !- Component Name 1

OutdoorAir:Mixer,
  OutdoorAir:Mixer {9c27e1ee-994f-409a-8c00-f47bd9dc58f9}, !- Name
  Node 23,                                !- Mixed Air Node Name
  Node 21,                                !- Outdoor Air Stream Node Name
  Node 22,                                !- Relief Air Stream Node Name
  Node 16;                                !- Return Air Stream Node Name

SetpointManager:MixedAir,
  Setpoint Manager Mixed Air 3,           !- Name
  Temperature,                            !- Control Variable
  Node 17,                                !- Reference Setpoint Node Name
  Node 25,                                !- Fan Inlet Node Name
  Node 17,                                !- Fan Outlet Node Name
  Node 23;                                !- Setpoint Node or NodeList Name

CoilSystem:Cooling:DX,
  Coil Cooling DX Two Speed 1 CoilSystem, !- Name
  Always_On,                              !- Availability Schedule Name
  Node 23,                                !- DX Cooling Coil System Inlet Node Name
  Node 24,                                !- DX Cooling Coil System Outlet Node Name
  Node 24,                                !- DX Cooling Coil System Sensor Node Name
  Coil:Cooling:DX:TwoSpeed,               !- Cooling Coil Object Type
  Coil Cooling DX Two Speed 1;            !- Cooling Coil Name

Coil:Cooling:DX:TwoSpeed,
  Coil Cooling DX Two Speed 1,            !- Name
  Always_On,                              !- Availability Schedule Name
  Autosize,                               !- Rated High Speed Total Cooling Capacity {W}
  Autosize,                               !- Rated High Speed Sensible Heat Ratio
  5.5,                                    !- Rated High Speed COP {W/W}
  Autosize,                               !- Rated High Speed Air Flow Rate {m3/s}
  ,                                       !- Unit Internal Static Air Pressure {Pa}
  Node 23,                                !- Air Inlet Node Name
  Node 24,                                !- Air Outlet Node Name
  Curve Biquadratic 1,                    !- Total Cooling Capacity Function of Temperature Curve Name
  Curve Quadratic 1,                      !- Total Cooling Capacity Function of Flow Fraction Curve Name
  Curve Biquadratic 2,                    !- Energy Input Ratio Function of Temperature Curve Name
  Curve Quadratic 2,                      !- Energy Input Ratio Function of Flow Fraction Curve Name
  Curve Quadratic 3,                      !- Part Load Fraction Correlation Curve Name
  Autosize,                               !- Rated Low Speed Total Cooling Capacity {W}
  0.69,                                   !- Rated Low Speed Sensible Heat Ratio
  6.6,                                    !- Rated Low Speed COP {W/W}
  Autosize,                               !- Rated Low Speed Air Flow Rate {m3/s}
  Curve Biquadratic 3,                    !- Low Speed Total Cooling Capacity Function of Temperature Curve Name
  Curve Biquadratic 4,                    !- Low Speed Energy Input Ratio Function of Temperature Curve Name
  ,                                       !- Condenser Air Inlet Node Name
  AirCooled,                              !- Condenser Type