
OS:Version,
  {33f85ec9-38f0-4272-be8b-a98dd4f2f171}, !- Handle
  0.10.0;                                 !- Version Identifier

OS:BuildingStory,
  {e92bcbc8-5848-4e58-928a-a64d4369a2b4}, !- Handle
  Story 1,                                !- Name
  0,                                      !- Nominal Z Coordinate {m}
  4,                                      !- Nominal Floor to Floor Height {m}
  ,                                       !- Default Construction Set Name
  ,                                       !- Default Schedule Set Name
  ;                                       !- Group Rendering Name

OS:Space,
  {2f7e9415-0219-4c3e-b23b-ee14b4197a35}, !- Handle
  Story 1 West Perimeter Space,           !- Name
  ,                                       !- Space Type Name
  ,                                       !- Default Construction Set Name
  ,                                       !- Default Schedule Set Name
  -0,                                     !- Direction of Relative North {deg}
  0,                                      !- X Origin {m}
  0,                                      !- Y Origin {m}
  0,                                      !- Z Origin {m}
  {e92bcbc8-5848-4e58-928a-a64d4369a2b4}, !- Building Story Name
  {d1ce0ba6-8006-4010-b102-4c82ab7d63b5}; !- Thermal Zone Name

OS:Surface,
  {430ea4f0-c133-438e-a4b8-81a13b0a6de0}, !- Handle
  Surface 1,                              !- Name
  Floor,                                  !- Surface Type
  ,                                       !- Construction Name
  {2f7e9415-0219-4c3e-b23b-ee14b4197a35}, !- Space Name
  Ground,                                 !- Outside Boundary Condition
  ,                                       !- Outside Boundary Condition Object
  NoSun,                                  !- Sun Exposure
  NoWind,                                 !- Wind Exposure
  ,                                       !- View Factor to Ground
  ,                                       !- Number of Vertices
  0, 0, 0,                                !- X,Y,Z Vertex 1 {m}
  0, 558.569601750758, 0,                 !- X,Y,Z Vertex 2 {m}
  3, 555.569601750758, 0,                 !- X,Y,Z Vertex 3 {m}
  3, 3, 0;                                !- X,Y,Z Vertex 4 {m}

OS:Surface,
  {09889bdc-3f2e-4f6c-afa1-2d5e9a56220e}, !- Handle
  Surface 2,                              !- Name
  Wall,                                   !- Surface Type
  ,                                       !- Construction Name
  {2f7e9415-0219-4c3e-b23b-ee14b4197a35}, !- Space Name
  Outdoors,                               !- Outside Boundary Condition
  ,                                       !- Outside Boundary Condition Object
  SunExposed,                             !- Sun Exposure
  WindExposed,                            !- Wind Exposure
  ,                                       !- View Factor to Ground
  ,                                       !- Number of Vertices
  0, 558.569601750758, 4,                 !- X,Y,Z Vertex 1 {m}
  0, 558.569601750758, 0,                 !- X,Y,Z Vertex 2 {m}
  0, 0, 0,                                !- X,Y,Z Vertex 3 {m}
  0, 0, 4;                                !- X,Y,Z Vertex 4 {m}

OS:Surface,
  {5f4a7dc2-379e-4a29-beec-ea9234040784}, !- Handle
  Surface 3,                              !- Name
  Wall,                                   !- Surface Type
  ,                                       !- Construction Name
  {2f7e9415-0219-4c3e-b23b-ee14b4197a35}, !- Space Name
  Surface,                                !- Outside Boundary Condition
  {57d8ecb9-5d16-4d15-b40b-0ad219a18713}, !- Outside Boundary Condition Object
  NoSun,                                  !- Sun Exposure
  NoWind,                                 !- Wind Exposure
  ,                                       !- View Factor to Ground
  ,                                       !- Number of Vertices
  3, 555.569601750758, 4,                 !- X,Y,Z Vertex 1 {m}
  3, 555.569601750758, 0,                 !- X,Y,Z Vertex 2 {m}
  0, 558.569601750758, 0,                 !- X,Y,Z Vertex 3 {m}
  0, 558.569601750758, 4;                 !- X,Y,Z Vertex 4 {m}

OS:Surface,
  {9a82ffa3-ee45-4fd7-800d-65277347d75d}, !- Handle
  Surface 4,                              !- Name
  Wall,                                   !- Surface Type
  ,                                       !- Construction Name
  {2f7e9415-0219-4c3e-b23b-ee14b4197a35}, !- Space Name
  Surface,                                !- Outside Boundary Condition
  {e2ba1395-acd7-4b7d-8c1e-97df628b08b6}, !- Outside Boundary Condition Object
  NoSun,                                  !- Sun Exposure
  NoWind,                                 !- Wind Exposure
  ,                                       !- View Factor to Ground
  ,                                       !- Number of Vertices
  3, 3, 4,                                !- X,Y,Z Vertex 1 {m}
  3, 3, 0,                                !- X,Y,Z Vertex 2 {m}
  3, 555.569601750758, 0,                 !- X,Y,Z Vertex 3 {m}
  3, 555.569601750758, 4;                 !- X,Y,Z Vertex 4 {m}

OS:Surface,
  {915b680e-0554-4e02-a12d-818635a41517}, !- Handle
  Surface 5,                              !- Name
  Wall,                                   !- Surface Type
  ,                                       !- Construction Name
  {2f7e9415-0219-4c3e-b23b-ee14b4197a35}, !- Space Name
  Surface,                                !- Outside Boundary Condition
  {88dd1294-13b3-4294-8966-7967bbda32f5}, !- Outside Boundary Condition Object
  NoSun,                                  !- Sun Exposure
  NoWind,                                 !- Wind Exposure
  ,                                       !- View Factor to Ground
  ,                                       !- Number of Vertices
  0, 0, 4,                                !- X,Y,Z Vertex 1 {m}
  0, 0, 0,                                !- X,Y,Z Vertex 2 {m}
  3, 3, 0,                                !- X,Y,Z Vertex 3 {m}
  3, 3, 4;                                !- X,Y,Z Vertex 4 {m}

OS:Surface,
  {a0a28cbd-1104-4334-a899-713274df8ca8}, !- Handle
  Surface 6,                              !- Name
  RoofCeiling,                            !- Surface Type
  ,                                       !- Construction Name
  {2f7e9415-0219-4c3e-b23b-ee14b4197a35}, !- Space Name
  Surface,                                !- Outside Boundary Condition
  {4352088f-16bb-4952-b01c-3ba3cae687c1}, !- Outside Boundary Condition Object
  NoSun,                                  !- Sun Exposure
  NoWind,                                 !- Wind Exposure
  ,                                       !- View Factor to Ground
  ,                                       !- Number of Vertices
  3, 3, 4,                                !- X,Y,Z Vertex 1 {m}
  3, 555.569601750758, 4,                 !- X,Y,Z Vertex 2 {m}
  0, 558.569601750758, 4,                 !- X,Y,Z Vertex 3 {m}
  0, 0, 4;                                !- X,Y,Z Vertex 4 {m}

OS:Space,
  {e846ed8c-742c-4808-a1cb-6fc0bf4c6242}, !- Handle
  Story 1 North Perimeter Space,          !- Name
  ,                                       !- Space Type Name
  ,                                       !- Default Construction Set Name
  ,                                       !- Default Schedule Set Name
  -0,                                     !- Direction of Relative North {deg}
  3,                                      !- X Origin {m}
  555.569601750758,                       !- Y Origin {m}
  0,                                      !- Z Origin {m}
  {e92bcbc8-5848-4e58-928a-a64d4369a2b4}, !- Building Story Name
  {b966e467-c0d3-4a4f-909d-18f6aee1a4f7}; !- Thermal Zone Name

OS:Surface,
  {b26d37d0-60b7-45f4-bf63-60be1c0f7819}, !- Handle
  Surface 7,                              !- Name
  Floor,                                  !- Surface Type
  ,                                       !- Construction Name
  {e846ed8c-742c-4808-a1cb-6fc0bf4c6242}, !- Space Name
  Ground,                                 !- Outside Boundary Condition
  ,                                       !- Outside Boundary Condition Object
  NoSun,                                  !- Sun Exposure
  NoWind,                                 !- Wind Exposure
  ,                                       !- View Factor to Ground
  ,                                       !- Number of Vertices
  -3, 3.00000000000034, 0,                !- X,Y,Z Vertex 1 {m}
  555.569601750758, 3.00000000000034, 0,  !- X,Y,Z Vertex 2 {m}
  552.569601750758, 3.41060513164848e-13, 0, !- X,Y,Z Vertex 3 {m}
  0, 3.41060513164848e-13, 0;             !- X,Y,Z Vertex 4 {m}

OS:Surface,
  {f5929a67-7efe-4918-a31b-76fe6b61931b}, !- Handle
  Surface 8,                              !- Name
  Wall,                                   !- Surface Type
  ,                                       !- Construction Name
  {e846ed8c-742c-4808-a1cb-6fc0bf4c6242}, !- Space Name
  Outdoors,                               !- Outside Boundary Condition
  ,                                       !- Outside Boundary Condition Object
  SunExposed,                             !- Sun Exposure
  WindExposed,                            !- Wind Exposure
  ,                                       !- View Factor to Ground
  ,                                       !- Number of Vertices
  555.569601750758, 3.00000000000034, 4,  !- X,Y,Z Vertex 1 {m}
  555.569601750758, 3.00000000000034, 0,  !- X,Y,Z Vertex 2 {m}
  -3, 3.00000000000034, 0,                !- X,Y,Z Vertex 3 {m}
  -3, 3.00000000000034, 4;                !- X,Y,Z Vertex 4 {m}

OS:Surface,
  {f043f0a7-ccfd-4a3e-81a4-54a0bfd28ed2}, !- Handle
  Surface 9,                              !- Name
  Wall,                                   !- Surface Type
  ,                                       !- Construction Name
  {e846ed8c-742c-4808-a1cb-6fc0bf4c6242}, !- Space Name
  Surface,                                !- Outside Boundary Condition
  {643e8c46-f653-44ec-8a7a-a1164bef733e}, !- Outside Boundary Condition Object
  NoSun,                                  !- Sun Exposure
  NoWind,                                 !- Wind Exposure
  ,                                       !- View Factor to Ground
  ,                                       !- Number of Vertices
  552.569601750758, 3.41060513164848e-13, 4, !- X,Y,Z Vertex 1 {m}
  552.569601750758, 3.41060513164848e-13, 0, !- X,Y,Z Vertex 2 {m}
  555.569601750758, 3.00000000000034, 0,  !- X,Y,Z Vertex 3 {m}
  555.569601750758, 3.00000000000034, 4;  !- X,Y,Z Vertex 4 {m}

OS:Surface,
  {2bbac35c-ae89-4901-9961-5853cfc32e10}, !- Handle
  Surface 10,                             !- Name
  Wall,                                   !- Surface Type
  ,                                       !- Construction Name
  {e846ed8c-742c-4808-a1cb-6fc0bf4c6242}, !- Space Name
  Surface,                                !- Outside Boundary Condition
  {e10c5b6b-8b9e-4295-b266-9d081afd6b4c}, !- Outside Boundary Condition Object
  NoSun,                                  !- Sun Exposure
  NoWind,                                 !- Wind Exposure
  ,                                       !- View Factor to Ground
  ,                                       !- Number of Vertices
  0, 3.41060513164848e-13, 4,             !- X,Y,Z Vertex 1 {m}
  0, 3.41060513164848e-13, 0,             !- X,Y,Z Vertex 2 {m}
  552.569601750758, 3.41060513164848e-13, 0, !- X,Y,Z Vertex 3 {m}
  552.569601750758, 3.41060513164848e-13, 4; !- X,Y,Z Vertex 4 {m}

OS:Surface,
  {57d8ecb9-5d16-4d15-b40b-0ad219a18713}, !- Handle
  Surface 11,                             !- Name
  Wall,                                   !- Surface Type
  ,                                       !- Construction Name
  {e846ed8c-742c-4808-a1cb-6fc0bf4c6242}, !- Space Name
  Surface,                                !- Outside Boundary Condition
  {5f4a7dc2-379e-4a29-beec-ea9234040784}, !- Outside Boundary Condition Object
  NoSun,                                  !- Sun Exposure
  NoWind,                                 !- Wind Exposure
  ,                                       !- View Factor to Ground
  ,                                       !- Number of Vertices
  -3, 3.00000000000034, 4,                !- X,Y,Z Vertex 1 {m}
  -3, 3.00000000000034, 0,                !- X,Y,Z Vertex 2 {m}
  0, 3.41060513164848e-13, 0,             !- X,Y,Z Vertex 3 {m}
  0, 3.41060513164848e-13, 4;             !- X,Y,Z Vertex 4 {m}

OS:Surface,
  {bdb5d965-78ed-4f4a-9324-a76cb8b02a07}, !- Handle
  Surface 12,                             !- Name
  RoofCeiling,                            !- Surface Type
  ,                                       !- Construction Name
  {e846ed8c-742c-4808-a1cb-6fc0bf4c6242}, !- Space Name
  Surface,                                !- Outside Boundary Condition
  {31171811-f3b5-4322-acc6-fd93c48b1dbe}, !- Outside Boundary Condition Object
  NoSun,                                  !- Sun Exposure
  NoWind,                                 !- Wind Exposure
  ,                                       !- View Factor to Ground
  ,                                       !- Number of Vertices
  0, 3.41060513164848e-13, 4,             !- X,Y,Z Vertex 1 {m}
  552.569601750758, 3.41060513164848e-13, 4, !- X,Y,Z Vertex 2 {m}
  555.569601750758, 3.00000000000034, 4,  !- X,Y,Z Vertex 3 {m}
  -3, 3.00000000000034, 4;                !- X,Y,Z Vertex 4 {m}

OS:Space,
  {ce247622-46e9-4d99-8024-ee0d53374fbd}, !- Handle
  Story 1 East Perimeter Space,           !- Name
  ,                                       !- Space Type Name
  ,                                       !- Default Construction Set Name
  ,                                       !- Default Schedule Set Name
  -0,                                     !- Direction of Relative North {deg}
  555.569601750758,                       !- X Origin {m}
  3,                                      !- Y Origin {m}
  0,                                      !- Z Origin {m}
  {e92bcbc8-5848-4e58-928a-a64d4369a2b4}, !- Building Story Name
  {e0f25367-4992-4f97-a26e-bb4f4ad0ebd8}; !- Thermal Zone Name

OS:Surface,
  {f8b5b0d2-a74e-445a-a646-ed03f5cb1876}, !- Handle
  Surface 13,                             !- Name
  Floor,                                  !- Surface Type
  ,                                       !- Construction Name
  {ce247622-46e9-4d99-8024-ee0d53374fbd}, !- Space Name
  Ground,                                 !- Outside Boundary Condition
  ,                                       !- Outside Boundary Condition Object
  NoSun,                                  !- Sun Exposure
  NoWind,                                 !- Wind Exposure
  ,                                       !- View Factor to Ground
  ,                                       !- Number of Vertices
  3.00000000000034, 555.569601750758, 0,  !- X,Y,Z Vertex 1 {m}
  3.00000000000034, -3, 0,                !- X,Y,Z Vertex 2 {m}
  3.41060513164848e-13, 0, 0,             !- X,Y,Z Vertex 3 {m}
  3.41060513164848e-13, 552.569601750758, 0; !- X,Y,Z Vertex 4 {m}

OS:Surface,
  {ad4c7e2e-c325-4448-9868-def043a3cf97}, !- Handle
  Surface 14,                             !- Name
  Wall,                                   !- Surface Type
  ,                                       !- Construction Name
  {ce247622-46e9-4d99-8024-ee0d53374fbd}, !- Space Name
  Outdoors,                               !- Outside Boundary Condition
  ,                                       !- Outside Boundary Condition Object
  SunExposed,                             !- Sun Exposure
  WindExposed,                            !- Wind Exposure
  ,                                       !- View Factor to Ground
  ,                                       !- Number of Vertices
  3.00000000000034, -3, 4,                !- X,Y,Z Vertex 1 {m}
  3.00000000000034, -3, 0,                !- X,Y,Z Vertex 2 {m}
  3.00000000000034, 555.569601750758, 0,  !- X,Y,Z Vertex 3 {m}
  3.00000000000034, 555.569601750758, 4;  !- X,Y,Z Vertex 4 {m}

OS:Surface,
  {b2b0e9e2-45c0-49b2-a90f-e7a123a3e908}, !- Handle
  Surface 15,                             !- Name
  Wall,                                   !- Surface Type
  ,                                       !- Construction Name
  {ce247622-46e9-4d99-8024-ee0d53374fbd}, !- Space Name
  Surface,                                !- Outside Boundary Condition
  {814fa346-605c-4d4b-a20c-b82dbac2a5e1}, !- Outside Boundary Condition Object
  NoSun,                                  !- Sun Exposure
  NoWind,                                 !- Wind Exposure
  ,                                       !- View Factor to Ground
  ,                                       !- Number of Vertices
  3.41060513164848e-13, 0, 4,             !- X,Y,Z Vertex 1 {m}
  3.41060513164848e-13, 0, 0,             !- X,Y,Z Vertex 2 {m}
  3.00000000000034, -3, 0,                !- X,Y,Z Vertex 3 {m}
  3.00000000000034, -3, 4;                !- X,Y,Z Vertex 4 {m}

OS:Surface,
  {485041b8-4ae8-47e3-bbba-078188b8a441}, !- Handle
  Surface 16,                             !- Name
  Wall,                                   !- Surface Type
  ,                                       !- Construction Name
  {ce247622-46e9-4d99-8024-ee0d53374fbd}, !- Space Name
  Surface,                                !- Outside Boundary Condition
  {73e0e65a-36dc-435f-a239-f12e44e9076a}, !- Outside Boundary Condition Object
  NoSun,                                  !- Sun Exposure
  NoWind,                                 !- Wind Exposure
  ,                                       !- View Factor to Ground
  ,                                       !- Number of Vertices
  3.41060513164848e-13, 552.569601750758, 4, !- X,Y,Z Vertex 1 {m}
  3.41060513164848e-13, 552.569601750758, 0, !- X,Y,Z Vertex 2 {m}
  3.41060513164848e-13, 0, 0,             !- X,Y,Z Vertex 3 {m}
  3.41060513164848e-13, 0, 4;             !- X,Y,Z Vertex 4 {m}

OS:Surface,
  {643e8c46-f653-44ec-8a7a-a1164bef733e}, !- Handle
  Surface 17,                             !- Name
  Wall,                                   !- Surface Type
  ,                                       !- Construction Name
  {ce247622-46e9-4d99-8024-ee0d53374fbd}, !- Space Name
  Surface,                                !- Outside Boundary Condition
  {f043f0a7-ccfd-4a3e-81a4-54a0bfd28ed2}, !- Outside Boundary Condition Object
  NoSun,                                  !- Sun Exposure
  NoWind,                                 !- Wind Exposure
  ,                                       !- View Factor to Ground
  ,                                       !- Number of Vertices
  3.00000000000034, 555.569601750758, 4,  !- X,Y,Z Vertex 1 {m}
  3.00000000000034, 555.569601750758, 0,  !- X,Y,Z Vertex 2 {m}
  3.41060513164848e-13, 552.569601750758, 0, !- X,Y,Z Vertex 3 {m}
  3.41060513164848e-13, 552.569601750758, 4; !- X,Y,Z Vertex 4 {m}

OS:Surface,
  {bd1f9c22-af91-417f-a5cf-c08c43a32024}, !- Handle
  Surface 18,                             !- Name
  RoofCeiling,                            !- Surface Type
  ,                                       !- Construction Name
  {ce247622-46e9-4d99-8024-ee0d53374fbd}, !- Space Name
  Surface,                                !- Outside Boundary Condition
  {77aefb3e-89e3-4889-9cb2-aadeec3fb569}, !- Outside Boundary Condition Object
  NoSun,                                  !- Sun Exposure
  NoWind,                                 !- Wind Exposure
  ,                                       !- View Factor to Ground
  ,                                       !- Number of Vertices
  3.41060513164848e-13, 552.569601750758, 4, !- X,Y,Z Vertex 1 {m}
  3.41060513164848e-13, 0, 4,             !- X,Y,Z Vertex 2 {m}
  3.00000000000034, -3, 4,                !- X,Y,Z Vertex 3 {m}
  3.00000000000034, 555.569601750758, 4;  !- X,Y,Z Vertex 4 {m}

OS:Space,
  {0bba71ea-90f7-4de2-8d11-017b3eff862f}, !- Handle
  Story 1 South Perimeter Space,          !- Name
  ,                                       !- Space Type Name
  ,                                       !- Default Construction Set Name
  ,                                       !- Default Schedule Set Name
  -0,                                     !- Direction of Relative North {deg}
  0,                                      !- X Origin {m}
  0,                                      !- Y Origin {m}
  0,                                      !- Z Origin {m}
  {e92bcbc8-5848-4e58-928a-a64d4369a2b4}, !- Building Story Name
  {1b06706e-11a6-46b4-974d-6b1d8baa6782}; !- Thermal Zone Name

OS:Surface,
  {a548dae2-14c2-4238-ac04-7beb317d13fa}, !- Handle
  Surface 19,                             !- Name
  Floor,                                  !- Surface Type
  ,                                       !- Construction Name
  {0bba71ea-90f7-4de2-8d11-017b3eff862f}, !- Space Name
  Ground,                                 !- Outside Boundary Condition
  ,                                       !- Outside Boundary Condition Object
  NoSun,                                  !- Sun Exposure
  NoWind,                                 !- Wind Exposure
  ,                                       !- View Factor to Ground
  ,                                       !- Number of Vertices
  558.569601750758, 0, 0,                 !- X,Y,Z Vertex 1 {m}
  0, 0, 0,                                !- X,Y,Z Vertex 2 {m}
  3, 3, 0,                                !- X,Y,Z Vertex 3 {m}
  555.569601750758, 3, 0;                 !- X,Y,Z Vertex 4 {m}

OS:Surface,
  {0efd2940-a533-43fa-a48e-4caa2066c196}, !- Handle
  Surface 20,                             !- Name
  Wall,                                   !- Surface Type
  ,                                       !- Construction Name
  {0bba71ea-90f7-4de2-8d11-017b3eff862f}, !- Space Name
  Outdoors,                               !- Outside Boundary Condition
  ,                                       !- Outside Boundary Condition Object
  SunExposed,                             !- Sun Exposure
  WindExposed,                            !- Wind Exposure
  ,                                       !- View Factor to Ground
  ,                                       !- Number of Vertices
  0, 0, 4,                                !- X,Y,Z Vertex 1 {m}
  0, 0, 0,                                !- X,Y,Z Vertex 2 {m}
  558.569601750758, 0, 0,                 !- X,Y,Z Vertex 3 {m}
  558.569601750758, 0, 4;                 !- X,Y,Z Vertex 4 {m}

OS:Surface,
  {88dd1294-13b3-4294-8966-7967bbda32f5}, !- Handle
  Surface 21,                             !- Name
  Wall,                                   !- Surface Type
  ,                                       !- Construction Name
  {0bba71ea-90f7-4de2-8d11-017b3eff862f}, !- Space Name
  Surface,                                !- Outside Boundary Condition
  {915b680e-0554-4e02-a12d-818635a41517}, !- Outside Boundary Condition Object
  NoSun,                                  !- Sun Exposure
  NoWind,                                 !- Wind Exposure
  ,                                       !- View Factor to Ground
  ,                                       !- Number of Vertices
  3, 3, 4,                                !- X,Y,Z Vertex 1 {m}
  3, 3, 0,                                !- X,Y,Z Vertex 2 {m}
  0, 0, 0,                                !- X,Y,Z Vertex 3 {m}
  0, 0, 4;                                !- X,Y,Z Vertex 4 {m}

OS:Surface,
  {d11d4dd8-6494-4e63-9f27-bfaea35a4dc2}, !- Handle
  Surface 22,                             !- Name
  Wall,                                   !- Surface Type
  ,                                       !- Construction Name
  {0bba71ea-90f7-4de2-8d11-017b3eff862f}, !- Space Name
  Surface,                                !- Outside Boundary Condition
  {7632de57-4d97-4282-bc3d-6001eec2341a}, !- Outside Boundary Condition Object
  NoSun,                                  !- Sun Exposure
  NoWind,                                 !- Wind Exposure
  ,                                       !- View Factor to Ground
  ,                                       !- Number of Vertices
  555.569601750758, 3, 4,                 !- X,Y,Z Vertex 1 {m}
  555.569601750758, 3, 0,                 !- X,Y,Z Vertex 2 {m}
  3, 3, 0,                                !- X,Y,Z Vertex 3 {m}
  3, 3, 4;                                !- X,Y,Z Vertex 4 {m}

OS:Surface,
  {814fa346-605c-4d4b-a20c-b82dbac2a5e1}, !- Handle
  Surface 23,                             !- Name
  Wall,                                   !- Surface Type
  ,                                       !- Construction Name
  {0bba71ea-90f7-4de2-8d11-017b3eff862f}, !- Space Name
  Surface,                                !- Outside Boundary Condition
  {b2b0e9e2-45c0-49b2-a90f-e7a123a3e908}, !- Outside Boundary Condition Object
  NoSun,                                  !- Sun Exposure
  NoWind,                                 !- Wind Exposure
  ,                                       !- View Factor to Ground
  ,                                       !- Number of Vertices
  558.569601750758, 0, 4,                 !- X,Y,Z Vertex 1 {m}
  558.569601750758, 0, 0,                 !- X,Y,Z Vertex 2 {m}
  555.569601750758, 3, 0,                 !- X,Y,Z Vertex 3 {m}
  555.569601750758, 3, 4;                 !- X,Y,Z Vertex 4 {m}

OS:Surface,
  {70bb1a96-9387-4941-9bfd-c1e4727b5fef}, !- Handle
  Surface 24,                             !- Name
  RoofCeiling,                            !- Surface Type
  ,                                       !- Construction Name
  {0bba71ea-90f7-4de2-8d11-017b3eff862f}, !- Space Name
  Surface,                                !- Outside Boundary Condition
  {b10124ca-138b-4bca-bea6-378bc2915586}, !- Outside Boundary Condition Object
  NoSun,                                  !- Sun Exposure
  NoWind,                                 !- Wind Exposure
  ,                                       !- View Factor to Ground
  ,                                       !- Number of Vertices
  555.569601750758, 3, 4,                 !- X,Y,Z Vertex 1 {m}
  3, 3, 4,                                !- X,Y,Z Vertex 2 {m}
  0, 0, 4,                                !- X,Y,Z Vertex 3 {m}
  558.569601750758, 0, 4;                 !- X,Y,Z Vertex 4 {m}

OS:Space,
  {32176845-03d7-475c-8eaa-14f97978531e}, !- Handle
  Story 1 Core Space,                     !- Name
  ,                                       !- Space Type Name
  ,                                       !- Default Construction Set Name
  ,                                       !- Default Schedule Set Name
  -0,                                     !- Direction of Relative North {deg}
  3,                                      !- X Origin {m}
  3,                                      !- Y Origin {m}
  0,                                      !- Z Origin {m}
  {e92bcbc8-5848-4e58-928a-a64d4369a2b4}, !- Building Story Name
  {682e4d9c-d2ab-4552-ad02-e48a195632f1}; !- Thermal Zone Name

OS:Surface,
  {eaae6d3d-ca70-472d-85e2-5bcddd19cbb4}, !- Handle
  Surface 25,                             !- Name
  Floor,                                  !- Surface Type
  ,                                       !- Construction Name
  {32176845-03d7-475c-8eaa-14f97978531e}, !- Space Name
  Ground,                                 !- Outside Boundary Condition
  ,                                       !- Outside Boundary Condition Object
  NoSun,                                  !- Sun Exposure
  NoWind,                                 !- Wind Exposure
  ,                                       !- View Factor to Ground
  ,                                       !- Number of Vertices
  0, 0, 0,                                !- X,Y,Z Vertex 1 {m}
  0, 552.569601750758, 0,                 !- X,Y,Z Vertex 2 {m}
  552.569601750758, 552.569601750758, 0,  !- X,Y,Z Vertex 3 {m}
  552.569601750758, 0, 0;                 !- X,Y,Z Vertex 4 {m}

OS:Surface,
  {e2ba1395-acd7-4b7d-8c1e-97df628b08b6}, !- Handle
  Surface 26,                             !- Name
  Wall,                                   !- Surface Type
  ,                                       !- Construction Name
  {32176845-03d7-475c-8eaa-14f97978531e}, !- Space Name
  Surface,                                !- Outside Boundary Condition
  {9a82ffa3-ee45-4fd7-800d-65277347d75d}, !- Outside Boundary Condition Object
  NoSun,                                  !- Sun Exposure
  NoWind,                                 !- Wind Exposure
  ,                                       !- View Factor to Ground
  ,                                       !- Number of Vertices
  0, 552.569601750758, 4,                 !- X,Y,Z Vertex 1 {m}
  0, 552.569601750758, 0,                 !- X,Y,Z Vertex 2 {m}
  0, 0, 0,                                !- X,Y,Z Vertex 3 {m}
  0, 0, 4;                                !- X,Y,Z Vertex 4 {m}

OS:Surface,
  {e10c5b6b-8b9e-4295-b266-9d081afd6b4c}, !- Handle
  Surface 27,                             !- Name
  Wall,                                   !- Surface Type
  ,                                       !- Construction Name
  {32176845-03d7-475c-8eaa-14f97978531e}, !- Space Name
  Surface,                                !- Outside Boundary Condition
  {2bbac35c-ae89-4901-9961-5853cfc32e10}, !- Outside Boundary Condition Object
  NoSun,                                  !- Sun Exposure
  NoWind,                                 !- Wind Exposure
  ,                                       !- View Factor to Ground
  ,                                       !- Number of Vertices
  552.569601750758, 552.569601750758, 4,  !- X,Y,Z Vertex 1 {m}
  552.569601750758, 552.569601750758, 0,  !- X,Y,Z Vertex 2 {m}
  0, 552.569601750758, 0,                 !- X,Y,Z Vertex 3 {m}
  0, 552.569601750758, 4;                 !- X,Y,Z Vertex 4 {m}

OS:Surface,
  {73e0e65a-36dc-435f-a239-f12e44e9076a}, !- Handle
  Surface 28,                             !- Name
  Wall,                                   !- Surface Type
  ,                                       !- Construction Name