
OS:Version,
  {50ce6656-a4c0-418a-bbdd-d5e4ff48a17c}, !- Handle
  0.10.0;                                 !- Version Identifier

OS:BuildingStory,
  {981835ed-10c9-4955-8e71-8c4559bf640d}, !- Handle
  Story 1,                                !- Name
  0,                                      !- Nominal Z Coordinate {m}
  4,                                      !- Nominal Floor to Floor Height {m}
  ,                                       !- Default Construction Set Name
  ,                                       !- Default Schedule Set Name
  ;                                       !- Group Rendering Name

OS:Space,
  {99b0a5af-9202-4fc0-9166-5b97c086d40c}, !- Handle
  Story 1 West Perimeter Space,           !- Name
  ,                                       !- Space Type Name
  ,                                       !- Default Construction Set Name
  ,                                       !- Default Schedule Set Name
  -0,                                     !- Direction of Relative North {deg}
  0,                                      !- X Origin {m}
  0,                                      !- Y Origin {m}
  0,                                      !- Z Origin {m}
  {981835ed-10c9-4955-8e71-8c4559bf640d}, !- Building Story Name
  {4b2b05f1-69d0-4b77-a93f-089b320e2c10}; !- Thermal Zone Name

OS:Surface,
  {ce5e462e-bfaa-46c2-a33e-7013c2cc96cf}, !- Handle
  Surface 1,                              !- Name
  Floor,                                  !- Surface Type
  ,                                       !- Construction Name
  {99b0a5af-9202-4fc0-9166-5b97c086d40c}, !- Space Name
  Ground,                                 !- Outside Boundary Condition
  ,                                       !- Outside Boundary Condition Object
  NoSun,                                  !- Sun Exposure
  NoWind,                                 !- Wind Exposure
  ,                                       !- View Factor to Ground
  ,                                       !- Number of Vertices
  0, 0, 0,                                !- X,Y,Z Vertex 1 {m}
  0, 8.66025403784439, 0,                 !- X,Y,Z Vertex 2 {m}
  3, 5.66025403784439, 0,                 !- X,Y,Z Vertex 3 {m}
  3, 3, 0;                                !- X,Y,Z Vertex 4 {m}

OS:Surface,
  {50fe9bb4-c324-4076-98a4-2032f229a36e}, !- Handle
  Surface 2,                              !- Name
  Wall,                                   !- Surface Type
  ,                                       !- Construction Name
  {99b0a5af-9202-4fc0-9166-5b97c086d40c}, !- Space Name
  Outdoors,                               !- Outside Boundary Condition
  ,                                       !- Outside Boundary Condition Object
  SunExposed,                             !- Sun Exposure
  WindExposed,                            !- Wind Exposure
  ,                                       !- View Factor to Ground
  ,                                       !- Number of Vertices
  0, 8.66025403784439, 4,                 !- X,Y,Z Vertex 1 {m}
  0, 8.66025403784439, 0,                 !- X,Y,Z Vertex 2 {m}
  0, 0, 0,                                !- X,Y,Z Vertex 3 {m}
  0, 0, 4;                                !- X,Y,Z Vertex 4 {m}

OS:Surface,
  {bbc9e6e1-94f3-4228-9360-bb949bbb9160}, !- Handle
  Surface 3,                              !- Name
  Wall,                                   !- Surface Type
  ,                                       !- Construction Name
  {99b0a5af-9202-4fc0-9166-5b97c086d40c}, !- Space Name
  Surface,                                !- Outside Boundary Condition
  {d5220b87-25a7-47f6-9e24-06af80b60bb1}, !- Outside Boundary Condition Object
  NoSun,                                  !- Sun Exposure
  NoWind,                                 !- Wind Exposure
  ,                                       !- View Factor to Ground
  ,                                       !- Number of Vertices
  3, 5.66025403784439, 4,                 !- X,Y,Z Vertex 1 {m}
  3, 5.66025403784439, 0,                 !- X,Y,Z Vertex 2 {m}
  0, 8.66025403784439, 0,                 !- X,Y,Z Vertex 3 {m}
  0, 8.66025403784439, 4;                 !- X,Y,Z Vertex 4 {m}

OS:Surface,
  {f66a488d-0a17-4889-9d98-54157704e9ad}, !- Handle
  Surface 4,                              !- Name
  Wall,                                   !- Surface Type
  ,                                       !- Construction Name
  {99b0a5af-9202-4fc0-9166-5b97c086d40c}, !- Space Name
  Surface,                                !- Outside Boundary Condition
  {0c62c052-356b-49b3-9c6f-164d76071ec6}, !- Outside Boundary Condition Object
  NoSun,                                  !- Sun Exposure
  NoWind,                                 !- Wind Exposure
  ,                                       !- View Factor to Ground
  ,                                       !- Number of Vertices
  3, 3, 4,                                !- X,Y,Z Vertex 1 {m}
  3, 3, 0,                                !- X,Y,Z Vertex 2 {m}
  3, 5.66025403784439, 0,                 !- X,Y,Z Vertex 3 {m}
  3, 5.66025403784439, 4;                 !- X,Y,Z Vertex 4 {m}

OS:Surface,
  {f6e1f2db-a67c-4ceb-8c9a-ac00b260a0ea}, !- Handle
  Surface 5,                              !- Name
  Wall,                                   !- Surface Type
  ,                                       !- Construction Name
  {99b0a5af-9202-4fc0-9166-5b97c086d40c}, !- Space Name
  Surface,                                !- Outside Boundary Condition
  {406440c8-aa95-45af-b9bd-82bc45a21723}, !- Outside Boundary Condition Object
  NoSun,                                  !- Sun Exposure
  NoWind,                                 !- Wind Exposure
  ,                                       !- View Factor to Ground
  ,                                       !- Number of Vertices
  0, 0, 4,                                !- X,Y,Z Vertex 1 {m}
  0, 0, 0,                                !- X,Y,Z Vertex 2 {m}
  3, 3, 0,                                !- X,Y,Z Vertex 3 {m}
  3, 3, 4;                                !- X,Y,Z Vertex 4 {m}

OS:Surface,
  {ab5b0403-d0d7-4e53-9e18-57258b18ba6f}, !- Handle
  Surface 6,                              !- Name
  RoofCeiling,                            !- Surface Type
  ,                                       !- Construction Name
  {99b0a5af-9202-4fc0-9166-5b97c086d40c}, !- Space Name
  Outdoors,                               !- Outside Boundary Condition
  ,                                       !- Outside Boundary Condition Object
  SunExposed,                             !- Sun Exposure
  WindExposed,                            !- Wind Exposure
  ,                                       !- View Factor to Ground
  ,                                       !- Number of Vertices
  3, 3, 4,                                !- X,Y,Z Vertex 1 {m}
  3, 5.66025403784439, 4,                 !- X,Y,Z Vertex 2 {m}
  0, 8.66025403784439, 4,                 !- X,Y,Z Vertex 3 {m}
  0, 0, 4;                                !- X,Y,Z Vertex 4 {m}

OS:Space,
  {96f2d41b-715d-40fc-a0a6-9cb6666b2416}, !- Handle
  Story 1 North Perimeter Space,          !- Name
  ,                                       !- Space Type Name
  ,                                       !- Default Construction Set Name
  ,                                       !- Default Schedule Set Name
  -0,                                     !- Direction of Relative North {deg}
  3,                                      !- X Origin {m}
  5.66025403784439,                       !- Y Origin {m}
  0,                                      !- Z Origin {m}
  {981835ed-10c9-4955-8e71-8c4559bf640d}, !- Building Story Name
  {ce38ccad-3a14-418a-a849-c0f07966b5ef}; !- Thermal Zone Name

OS:Surface,
  {0da77a43-1036-47aa-8869-dcad06ea9bcc}, !- Handle
  Surface 7,                              !- Name
  Floor,                                  !- Surface Type
  ,                                       !- Construction Name
  {96f2d41b-715d-40fc-a0a6-9cb6666b2416}, !- Space Name
  Ground,                                 !- Outside Boundary Condition
  ,                                       !- Outside Boundary Condition Object
  NoSun,                                  !- Sun Exposure
  NoWind,                                 !- Wind Exposure
  ,                                       !- View Factor to Ground
  ,                                       !- Number of Vertices
  -3, 3, 0,                               !- X,Y,Z Vertex 1 {m}
  5.66025403784439, 3, 0,                 !- X,Y,Z Vertex 2 {m}
  2.66025403784439, 2.66453525910038e-15, 0, !- X,Y,Z Vertex 3 {m}
  0, 2.66453525910038e-15, 0;             !- X,Y,Z Vertex 4 {m}

OS:Surface,
  {c8c9651a-2362-46ed-9688-a24b95f753de}, !- Handle
  Surface 8,                              !- Name
  Wall,                                   !- Surface Type
  ,                                       !- Construction Name
  {96f2d41b-715d-40fc-a0a6-9cb6666b2416}, !- Space Name
  Outdoors,                               !- Outside Boundary Condition
  ,                                       !- Outside Boundary Condition Object
  SunExposed,                             !- Sun Exposure
  WindExposed,                            !- Wind Exposure
  ,                                       !- View Factor to Ground
  ,                                       !- Number of Vertices
  5.66025403784439, 3, 4,                 !- X,Y,Z Vertex 1 {m}
  5.66025403784439, 3, 0,                 !- X,Y,Z Vertex 2 {m}
  -3, 3, 0,                               !- X,Y,Z Vertex 3 {m}
  -3, 3, 4;                               !- X,Y,Z Vertex 4 {m}

OS:Surface,
  {2b18b95d-879d-4234-b3fc-4414bc9f8bb1}, !- Handle
  Surface 9,                              !- Name
  Wall,                                   !- Surface Type
  ,                                       !- Construction Name
  {96f2d41b-715d-40fc-a0a6-9cb6666b2416}, !- Space Name
  Surface,                                !- Outside Boundary Condition
  {dae1499a-e091-4e1e-86f7-2c3a51e3ddcc}, !- Outside Boundary Condition Object
  NoSun,                                  !- Sun Exposure
  NoWind,                                 !- Wind Exposure
  ,                                       !- View Factor to Ground
  ,                                       !- Number of Vertices
  2.66025403784439, 2.66453525910038e-15, 4, !- X,Y,Z Vertex 1 {m}
  2.66025403784439, 2.66453525910038e-15, 0, !- X,Y,Z Vertex 2 {m}
  5.66025403784439, 3, 0,                 !- X,Y,Z Vertex 3 {m}
  5.66025403784439, 3, 4;                 !- X,Y,Z Vertex 4 {m}

OS:Surface,
  {516efd72-fbe6-41bb-9b3a-e0d10a1b56cb}, !- Handle
  Surface 10,                             !- Name
  Wall,                                   !- Surface Type
  ,                                       !- Construction Name
  {96f2d41b-715d-40fc-a0a6-9cb6666b2416}, !- Space Name
  Surface,                                !- Outside Boundary Condition
  {e22234e1-52d1-4277-bc7b-85c96e88f54e}, !- Outside Boundary Condition Object
  NoSun,                                  !- Sun Exposure
  NoWind,                                 !- Wind Exposure
  ,                                       !- View Factor to Ground
  ,                                       !- Number of Vertices
  0, 2.66453525910038e-15, 4,             !- X,Y,Z Vertex 1 {m}
  0, 2.66453525910038e-15, 0,             !- X,Y,Z Vertex 2 {m}
  2.66025403784439, 2.66453525910038e-15, 0, !- X,Y,Z Vertex 3 {m}
  2.66025403784439, 2.66453525910038e-15, 4; !- X,Y,Z Vertex 4 {m}

OS:Surface,
  {d5220b87-25a7-47f6-9e24-06af80b60bb1}, !- Handle
  Surface 11,                             !- Name
  Wall,                                   !- Surface Type
  ,                                       !- Construction Name
  {96f2d41b-715d-40fc-a0a6-9cb6666b2416}, !- Space Name
  Surface,                                !- Outside Boundary Condition
  {bbc9e6e1-94f3-4228-9360-bb949bbb9160}, !- Outside Boundary Condition Object
  NoSun,                                  !- Sun Exposure
  NoWind,                                 !- Wind Exposure
  ,                                       !- View Factor to Ground
  ,                                       !- Number of Vertices
  -3, 3, 4,                               !- X,Y,Z Vertex 1 {m}
  -3, 3, 0,                               !- X,Y,Z Vertex 2 {m}
  0, 2.66453525910038e-15, 0,             !- X,Y,Z Vertex 3 {m}
  0, 2.66453525910038e-15, 4;             !- X,Y,Z Vertex 4 {m}

OS:Surface,
  {a9a29de4-38ec-45d9-85c8-84ec60c400ae}, !- Handle
  Surface 12,                             !- Name
  RoofCeiling,                            !- Surface Type
  ,                                       !- Construction Name
  {96f2d41b-715d-40fc-a0a6-9cb6666b2416}, !- Space Name
  Outdoors,                               !- Outside Boundary Condition
  ,                                       !- Outside Boundary Condition Object
  SunExposed,                             !- Sun Exposure
  WindExposed,                            !- Wind Exposure
  ,                                       !- View Factor to Ground
  ,                                       !- Number of Vertices
  0, 2.66453525910038e-15, 4,             !- X,Y,Z Vertex 1 {m}
  2.66025403784439, 2.66453525910038e-15, 4, !- X,Y,Z Vertex 2 {m}
  5.66025403784439, 3, 4,                 !- X,Y,Z Vertex 3 {m}
  -3, 3, 4;                               !- X,Y,Z Vertex 4 {m}

OS:Space,
  {b624d096-1d97-4ac0-bc2b-914ca7ecea55}, !- Handle
  Story 1 East Perimeter Space,           !- Name
  ,                                       !- Space Type Name
  ,                                       !- Default Construction Set Name
  ,                                       !- Default Schedule Set Name
  -0,                                     !- Direction of Relative North {deg}
  5.66025403784439,                       !- X Origin {m}
  3,                                      !- Y Origin {m}
  0,                                      !- Z Origin {m}
  {981835ed-10c9-4955-8e71-8c4559bf640d}, !- Building Story Name
  {0376633b-a1e7-4227-ac2f-99288bdd08cb}; !- Thermal Zone Name

OS:Surface,
  {8ca3b0ea-bf5c-455c-8696-ac8d078b53a4}, !- Handle
  Surface 13,                             !- Name
  Floor,                                  !- Surface Type
  ,                                       !- Construction Name
  {b624d096-1d97-4ac0-bc2b-914ca7ecea55}, !- Space Name
  Ground,                                 !- Outside Boundary Condition
  ,                                       !- Outside Boundary Condition Object
  NoSun,                                  !- Sun Exposure
  NoWind,                                 !- Wind Exposure
  ,                                       !- View Factor to Ground
  ,                                       !- Number of Vertices
  3, 5.66025403784439, 0,                 !- X,Y,Z Vertex 1 {m}
  3, -3, 0,                               !- X,Y,Z Vertex 2 {m}
  2.66453525910038e-15, 0, 0,             !- X,Y,Z Vertex 3 {m}
  2.66453525910038e-15, 2.66025403784439, 0; !- X,Y,Z Vertex 4 {m}

OS:Surface,
  {f2898cf9-0f80-40d9-8136-918f7132f000}, !- Handle
  Surface 14,                             !- Name
  Wall,                                   !- Surface Type
  ,                                       !- Construction Name
  {b624d096-1d97-4ac0-bc2b-914ca7ecea55}, !- Space Name
  Outdoors,                               !- Outside Boundary Condition
  ,                                       !- Outside Boundary Condition Object
  SunExposed,                             !- Sun Exposure
  WindExposed,                            !- Wind Exposure
  ,                                       !- View Factor to Ground
  ,                                       !- Number of Vertices
  3, -3, 4,                               !- X,Y,Z Vertex 1 {m}
  3, -3, 0,                               !- X,Y,Z Vertex 2 {m}
  3, 5.66025403784439, 0,                 !- X,Y,Z Vertex 3 {m}
  3, 5.66025403784439, 4;                 !- X,Y,Z Vertex 4 {m}

OS:Surface,
  {57c199cc-f1ef-404b-be5a-62138c36c6c7}, !- Handle
  Surface 15,                             !- Name
  Wall,                                   !- Surface Type
  ,                                       !- Construction Name
  {b624d096-1d97-4ac0-bc2b-914ca7ecea55}, !- Space Name
  Surface,                                !- Outside Boundary Condition
  {358faefa-7324-432c-9118-37063b332563}, !- Outside Boundary Condition Object
  NoSun,                                  !- Sun Exposure
  NoWind,                                 !- Wind Exposure
  ,                                       !- View Factor to Ground
  ,                                       !- Number of Vertices
  2.66453525910038e-15, 0, 4,             !- X,Y,Z Vertex 1 {m}
  2.66453525910038e-15, 0, 0,             !- X,Y,Z Vertex 2 {m}
  3, -3, 0,                               !- X,Y,Z Vertex 3 {m}
  3, -3, 4;                               !- X,Y,Z Vertex 4 {m}

OS:Surface,
  {afb8db12-0416-4cbe-ad97-8c72581f6836}, !- Handle
  Surface 16,                             !- Name
  Wall,                                   !- Surface Type
  ,                                       !- Construction Name
  {b624d096-1d97-4ac0-bc2b-914ca7ecea55}, !- Space Name
  Surface,                                !- Outside Boundary Condition
  {b541690e-da6f-4992-bb78-2fc1aed15a84}, !- Outside Boundary Condition Object
  NoSun,                                  !- Sun Exposure
  NoWind,                                 !- Wind Exposure
  ,                                       !- View Factor to Ground
  ,                                       !- Number of Vertices
  2.66453525910038e-15, 2.66025403784439, 4, !- X,Y,Z Vertex 1 {m}
  2.66453525910038e-15, 2.66025403784439, 0, !- X,Y,Z Vertex 2 {m}
  2.66453525910038e-15, 0, 0,             !- X,Y,Z Vertex 3 {m}
  2.66453525910038e-15, 0, 4;             !- X,Y,Z Vertex 4 {m}

OS:Surface,
  {dae1499a-e091-4e1e-86f7-2c3a51e3ddcc}, !- Handle
  Surface 17,                             !- Name
  Wall,                                   !- Surface Type
  ,                                       !- Construction Name
  {b624d096-1d97-4ac0-bc2b-914ca7ecea55}, !- Space Name
  Surface,                                !- Outside Boundary Condition
  {2b18b95d-879d-4234-b3fc-4414bc9f8bb1}, !- Outside Boundary Condition Object
  NoSun,                                  !- Sun Exposure
  NoWind,                                 !- Wind Exposure
  ,                                       !- View Factor to Ground
  ,                                       !- Number of Vertices
  3, 5.66025403784439, 4,                 !- X,Y,Z Vertex 1 {m}
  3, 5.66025403784439, 0,                 !- X,Y,Z Vertex 2 {m}
  2.66453525910038e-15, 2.66025403784439, 0, !- X,Y,Z Vertex 3 {m}
  2.66453525910038e-15, 2.66025403784439, 4; !- X,Y,Z Vertex 4 {m}

OS:Surface,
  {cf6d09dc-88b4-4c28-99af-3fbaf4693245}, !- Handle
  Surface 18,                             !- Name
  RoofCeiling,                            !- Surface Type
  ,                                       !- Construction Name
  {b624d096-1d97-4ac0-bc2b-914ca7ecea55}, !- Space Name
  Outdoors,                               !- Outside Boundary Condition
  ,                                       !- Outside Boundary Condition Object
  SunExposed,                             !- Sun Exposure
  WindExposed,                            !- Wind Exposure
  ,                                       !- View Factor to Ground
  ,                                       !- Number of Vertices
  2.66453525910038e-15, 2.66025403784439, 4, !- X,Y,Z Vertex 1 {m}
  2.66453525910038e-15, 0, 4,             !- X,Y,Z Vertex 2 {m}
  3, -3, 4,                               !- X,Y,Z Vertex 3 {m}
  3, 5.66025403784439, 4;                 !- X,Y,Z Vertex 4 {m}

OS:Space,
  {4175d354-9492-446c-a01d-41ca71975d62}, !- Handle
  Story 1 South Perimeter Space,          !- Name
  ,                                       !- Space Type Name
  ,                                       !- Default Construction Set Name
  ,                                       !- Default Schedule Set Name
  -0,                                     !- Direction of Relative North {deg}
  0,                                      !- X Origin {m}
  0,                                      !- Y Origin {m}
  0,                                      !- Z Origin {m}
  {981835ed-10c9-4955-8e71-8c4559bf640d}, !- Building Story Name
  {ae5559a7-6c72-4af4-acf3-248e5bf3e134}; !- Thermal Zone Name

OS:Surface,
  {4f05613f-802e-4aa7-902c-6362de4259b6}, !- Handle
  Surface 19,                             !- Name
  Floor,                                  !- Surface Type
  ,                                       !- Construction Name
  {4175d354-9492-446c-a01d-41ca71975d62}, !- Space Name
  Ground,                                 !- Outside Boundary Condition
  ,                                       !- Outside Boundary Condition Object
  NoSun,                                  !- Sun Exposure
  NoWind,                                 !- Wind Exposure
  ,                                       !- View Factor to Ground
  ,                                       !- Number of Vertices
  8.66025403784439, 0, 0,                 !- X,Y,Z Vertex 1 {m}
  0, 0, 0,                                !- X,Y,Z Vertex 2 {m}
  3, 3, 0,                                !- X,Y,Z Vertex 3 {m}
  5.66025403784439, 3, 0;                 !- X,Y,Z Vertex 4 {m}

OS:Surface,
  {38271600-d022-4cb9-ac6c-55d4f1300781}, !- Handle
  Surface 20,                             !- Name
  Wall,                                   !- Surface Type
  ,                                       !- Construction Name
  {4175d354-9492-446c-a01d-41ca71975d62}, !- Space Name
  Outdoors,                               !- Outside Boundary Condition
  ,                                       !- Outside Boundary Condition Object
  SunExposed,                             !- Sun Exposure
  WindExposed,                            !- Wind Exposure
  ,                                       !- View Factor to Ground
  ,                                       !- Number of Vertices
  0, 0, 4,                                !- X,Y,Z Vertex 1 {m}
  0, 0, 0,                                !- X,Y,Z Vertex 2 {m}
  8.66025403784439, 0, 0,                 !- X,Y,Z Vertex 3 {m}
  8.66025403784439, 0, 4;                 !- X,Y,Z Vertex 4 {m}

OS:Surface,
  {406440c8-aa95-45af-b9bd-82bc45a21723}, !- Handle
  Surface 21,                             !- Name
  Wall,                                   !- Surface Type
  ,                                       !- Construction Name
  {4175d354-9492-446c-a01d-41ca71975d62}, !- Space Name
  Surface,                                !- Outside Boundary Condition
  {f6e1f2db-a67c-4ceb-8c9a-ac00b260a0ea}, !- Outside Boundary Condition Object
  NoSun,                                  !- Sun Exposure
  NoWind,                                 !- Wind Exposure
  ,                                       !- View Factor to Ground
  ,                                       !- Number of Vertices
  3, 3, 4,                                !- X,Y,Z Vertex 1 {m}
  3, 3, 0,                                !- X,Y,Z Vertex 2 {m}
  0, 0, 0,                                !- X,Y,Z Vertex 3 {m}
  0, 0, 4;                                !- X,Y,Z Vertex 4 {m}

OS:Surface,
  {1777d38c-8514-4683-abea-5b8759854ead}, !- Handle
  Surface 22,                             !- Name
  Wall,                                   !- Surface Type
  ,                                       !- Construction Name
  {4175d354-9492-446c-a01d-41ca71975d62}, !- Space Name
  Surface,                                !- Outside Boundary Condition
  {d2e4f375-1ecf-4d3b-8c78-a74e1a98123d}, !- Outside Boundary Condition Object
  NoSun,                                  !- Sun Exposure
  NoWind,                                 !- Wind Exposure
  ,                                       !- View Factor to Ground
  ,                                       !- Number of Vertices
  5.66025403784439, 3, 4,                 !- X,Y,Z Vertex 1 {m}
  5.66025403784439, 3, 0,                 !- X,Y,Z Vertex 2 {m}
  3, 3, 0,                                !- X,Y,Z Vertex 3 {m}
  3, 3, 4;                                !- X,Y,Z Vertex 4 {m}

OS:Surface,
  {358faefa-7324-432c-9118-37063b332563}, !- Handle
  Surface 23,                             !- Name
  Wall,                                   !- Surface Type
  ,                                       !- Construction Name
  {4175d354-9492-446c-a01d-41ca71975d62}, !- Space Name
  Surface,                                !- Outside Boundary Condition
  {57c199cc-f1ef-404b-be5a-62138c36c6c7}, !- Outside Boundary Condition Object
  NoSun,                                  !- Sun Exposure
  NoWind,                                 !- Wind Exposure
  ,                                       !- View Factor to Ground
  ,                                       !- Number of Vertices
  8.66025403784439, 0, 4,                 !- X,Y,Z Vertex 1 {m}
  8.66025403784439, 0, 0,                 !- X,Y,Z Vertex 2 {m}
  5.66025403784439, 3, 0,                 !- X,Y,Z Vertex 3 {m}
  5.66025403784439, 3, 4;                 !- X,Y,Z Vertex 4 {m}

OS:Surface,
  {27194e2c-bf00-4fc2-9233-dc452b1b9dc9}, !- Handle
  Surface 24,                             !- Name
  RoofCeiling,                            !- Surface Type
  ,                                       !- Construction Name
  {4175d354-9492-446c-a01d-41ca71975d62}, !- Space Name
  Outdoors,                               !- Outside Boundary Condition
  ,                                       !- Outside Boundary Condition Object
  SunExposed,                             !- Sun Exposure
  WindExposed,                            !- Wind Exposure
  ,                                       !- View Factor to Ground
  ,                                       !- Number of Vertices
  5.66025403784439, 3, 4,                 !- X,Y,Z Vertex 1 {m}
  3, 3, 4,                                !- X,Y,Z Vertex 2 {m}
  0, 0, 4,                                !- X,Y,Z Vertex 3 {m}
  8.66025403784439, 0, 4;                 !- X,Y,Z Vertex 4 {m}

OS:Space,
  {6b5fd1df-653e-4ec1-9ee2-acae1d094600}, !- Handle
  Story 1 Core Space,                     !- Name
  ,                                       !- Space Type Name
  ,                                       !- Default Construction Set Name
  ,                                       !- Default Schedule Set Name
  -0,                                     !- Direction of Relative North {deg}
  3,                                      !- X Origin {m}
  3,                                      !- Y Origin {m}
  0,                                      !- Z Origin {m}
  {981835ed-10c9-4955-8e71-8c4559bf640d}, !- Building Story Name
  {d6087448-7a87-41d0-b626-64b86ea45bdb}; !- Thermal Zone Name

OS:Surface,
  {bdfba701-28f8-4893-b115-77dceb8e3007}, !- Handle
  Surface 25,                             !- Name
  Floor,                                  !- Surface Type
  ,                                       !- Construction Name
  {6b5fd1df-653e-4ec1-9ee2-acae1d094600}, !- Space Name
  Ground,                                 !- Outside Boundary Condition
  ,                                       !- Outside Boundary Condition Object
  NoSun,                                  !- Sun Exposure
  NoWind,                                 !- Wind Exposure
  ,                                       !- View Factor to Ground
  ,                                       !- Number of Vertices
  0, 0, 0,                                !- X,Y,Z Vertex 1 {m}
  0, 2.66025403784439, 0,                 !- X,Y,Z Vertex 2 {m}
  2.66025403784439, 2.66025403784439, 0,  !- X,Y,Z Vertex 3 {m}
  2.66025403784439, 0, 0;                 !- X,Y,Z Vertex 4 {m}

OS:Surface,
  {0c62c052-356b-49b3-9c6f-164d76071ec6}, !- Handle
  Surface 26,                             !- Name
  Wall,                                   !- Surface Type
  ,                                       !- Construction Name
  {6b5fd1df-653e-4ec1-9ee2-acae1d094600}, !- Space Name
  Surface,                                !- Outside Boundary Condition
  {f66a488d-0a17-4889-9d98-54157704e9ad}, !- Outside Boundary Condition Object
  NoSun,                                  !- Sun Exposure
  NoWind,                                 !- Wind Exposure
  ,                                       !- View Factor to Ground
  ,                                       !- Number of Vertices
  0, 2.66025403784439, 4,                 !- X,Y,Z Vertex 1 {m}
  0, 2.66025403784439, 0,                 !- X,Y,Z Vertex 2 {m}
  0, 0, 0,                                !- X,Y,Z Vertex 3 {m}
  0, 0, 4;                                !- X,Y,Z Vertex 4 {m}

OS:Surface,
  {e22234e1-52d1-4277-bc7b-85c96e88f54e}, !- Handle
  Surface 27,                             !- Name
  Wall,                                   !- Surface Type
  ,                                       !- Construction Name
  {6b5fd1df-653e-4ec1-9ee2-acae1d094600}, !- Space Name
  Surface,                                !- Outside Boundary Condition
  {516efd72-fbe6-41bb-9b3a-e0d10a1b56cb}, !- Outside Boundary Condition Object
  NoSun,                                  !- Sun Exposure
  NoWind,                                 !- Wind Exposure
  ,                                       !- View Factor to Ground
  ,                                       !- Number of Vertices
  2.66025403784439, 2.66025403784439, 4,  !- X,Y,Z Vertex 1 {m}
  2.66025403784439, 2.66025403784439, 0,  !- X,Y,Z Vertex 2 {m}
  0, 2.66025403784439, 0,                 !- X,Y,Z Vertex 3 {m}
  0, 2.66025403784439, 4;                 !- X,Y,Z Vertex 4 {m}

OS:Surface,
  {b541690e-da6f-4992-bb78-2fc1aed15a84}, !- Handle
  Surface 28,                             !- Name
  Wall,                                   !- Surface Type
  ,                                       !- Construction Name