
OS:Version,
  {50c6c80b-ce0d-4778-bd74-e801164a03a0}, !- Handle
  0.10.0;                                 !- Version Identifier

OS:BuildingStory,
  {e07ef4a7-739f-4d33-ba84-5140e8eaeb87}, !- Handle
  Story 1,                                !- Name
  0,                                      !- Nominal Z Coordinate {m}
  4,                                      !- Nominal Floor to Floor Height {m}
  ,                                       !- Default Construction Set Name
  ,                                       !- Default Schedule Set Name
  ;                                       !- Group Rendering Name

OS:Space,
  {d86057d0-efcc-42bd-921a-df1a8c3e7248}, !- Handle
  Story 1 West Perimeter Space,           !- Name
  ,                                       !- Space Type Name
  ,                                       !- Default Construction Set Name
  ,                                       !- Default Schedule Set Name
  -0,                                     !- Direction of Relative North {deg}
  0,                                      !- X Origin {m}
  0,                                      !- Y Origin {m}
  0,                                      !- Z Origin {m}
  {e07ef4a7-739f-4d33-ba84-5140e8eaeb87}, !- Building Story Name
  {b484a2ab-0bc6-459f-9006-a7d11d4f1fb9}; !- Thermal Zone Name

OS:Surface,
  {5d60b563-7fd6-4cb0-bb2e-b7179c20e390}, !- Handle
  Surface 1,                              !- Name
  Floor,                                  !- Surface Type
  ,                                       !- Construction Name
  {d86057d0-efcc-42bd-921a-df1a8c3e7248}, !- Space Name
  Ground,                                 !- Outside Boundary Condition
  ,                                       !- Outside Boundary Condition Object
  NoSun,                                  !- Sun Exposure
  NoWind,                                 !- Wind Exposure
  ,                                       !- View Factor to Ground
  ,                                       !- Number of Vertices
  0, 0, 0,                                !- X,Y,Z Vertex 1 {m}
  0, 70.7106781186548, 0,                 !- X,Y,Z Vertex 2 {m}
  3, 67.7106781186548, 0,                 !- X,Y,Z Vertex 3 {m}
  3, 3, 0;                                !- X,Y,Z Vertex 4 {m}

OS:Surface,
  {b67637c0-dba8-42d0-9aa5-0e2789a4d557}, !- Handle
  Surface 2,                              !- Name
  Wall,                                   !- Surface Type
  ,                                       !- Construction Name
  {d86057d0-efcc-42bd-921a-df1a8c3e7248}, !- Space Name
  Outdoors,                               !- Outside Boundary Condition
  ,                                       !- Outside Boundary Condition Object
  SunExposed,                             !- Sun Exposure
  WindExposed,                            !- Wind Exposure
  ,                                       !- View Factor to Ground
  ,                                       !- Number of Vertices
  0, 70.7106781186548, 4,                 !- X,Y,Z Vertex 1 {m}
  0, 70.7106781186548, 0,                 !- X,Y,Z Vertex 2 {m}
  0, 0, 0,                                !- X,Y,Z Vertex 3 {m}
  0, 0, 4;                                !- X,Y,Z Vertex 4 {m}

OS:Surface,
  {77ae7298-9597-4a55-bb01-9130097faf62}, !- Handle
  Surface 3,                              !- Name
  Wall,                                   !- Surface Type
  ,                                       !- Construction Name
  {d86057d0-efcc-42bd-921a-df1a8c3e7248}, !- Space Name
  Surface,                                !- Outside Boundary Condition
  {4fd03237-3192-4362-99d7-80825508f51d}, !- Outside Boundary Condition Object
  NoSun,                                  !- Sun Exposure
  NoWind,                                 !- Wind Exposure
  ,                                       !- View Factor to Ground
  ,                                       !- Number of Vertices
  3, 67.7106781186548, 4,                 !- X,Y,Z Vertex 1 {m}
  3, 67.7106781186548, 0,                 !- X,Y,Z Vertex 2 {m}
  0, 70.7106781186548, 0,                 !- X,Y,Z Vertex 3 {m}
  0, 70.7106781186548, 4;                 !- X,Y,Z Vertex 4 {m}

OS:Surface,
  {a5cd359b-a4b3-4a82-9492-5dbc6dadaae8}, !- Handle
  Surface 4,                              !- Name
  Wall,                                   !- Surface Type
  ,                                       !- Construction Name
  {d86057d0-efcc-42bd-921a-df1a8c3e7248}, !- Space Name
  Surface,                                !- Outside Boundary Condition
  {1777dc31-2068-4254-97a3-eddb788a9436}, !- Outside Boundary Condition Object
  NoSun,                                  !- Sun Exposure
  NoWind,                                 !- Wind Exposure
  ,                                       !- View Factor to Ground
  ,                                       !- Number of Vertices
  3, 3, 4,                                !- X,Y,Z Vertex 1 {m}
  3, 3, 0,                                !- X,Y,Z Vertex 2 {m}
  3, 67.7106781186548, 0,                 !- X,Y,Z Vertex 3 {m}
  3, 67.7106781186548, 4;                 !- X,Y,Z Vertex 4 {m}

OS:Surface,
  {908a0b04-4015-4947-a7da-2f1ddc406143}, !- Handle
  Surface 5,                              !- Name
  Wall,                                   !- Surface Type
  ,                                       !- Construction Name
  {d86057d0-efcc-42bd-921a-df1a8c3e7248}, !- Space Name
  Surface,                                !- Outside Boundary Condition
  {38461169-f4f9-45e5-a6bf-63462728ac8c}, !- Outside Boundary Condition Object
  NoSun,                                  !- Sun Exposure
  NoWind,                                 !- Wind Exposure
  ,                                       !- View Factor to Ground
  ,                                       !- Number of Vertices
  0, 0, 4,                                !- X,Y,Z Vertex 1 {m}
  0, 0, 0,                                !- X,Y,Z Vertex 2 {m}
  3, 3, 0,                                !- X,Y,Z Vertex 3 {m}
  3, 3, 4;                                !- X,Y,Z Vertex 4 {m}

OS:Surface,
  {781d0ff4-a549-4c99-bb44-a51544127010}, !- Handle
  Surface 6,                              !- Name
  RoofCeiling,                            !- Surface Type
  ,                                       !- Construction Name
  {d86057d0-efcc-42bd-921a-df1a8c3e7248}, !- Space Name
  Surface,                                !- Outside Boundary Condition
  {9eaa2f96-9410-4fe3-933e-c76f40f812c8}, !- Outside Boundary Condition Object
  NoSun,                                  !- Sun Exposure
  NoWind,                                 !- Wind Exposure
  ,                                       !- View Factor to Ground
  ,                                       !- Number of Vertices
  3, 3, 4,                                !- X,Y,Z Vertex 1 {m}
  3, 67.7106781186548, 4,                 !- X,Y,Z Vertex 2 {m}
  0, 70.7106781186548, 4,                 !- X,Y,Z Vertex 3 {m}
  0, 0, 4;                                !- X,Y,Z Vertex 4 {m}

OS:Space,
  {6336d60d-5881-4f92-8c6b-0a43a868d121}, !- Handle
  Story 1 North Perimeter Space,          !- Name
  ,                                       !- Space Type Name
  ,                                       !- Default Construction Set Name
  ,                                       !- Default Schedule Set Name
  -0,                                     !- Direction of Relative North {deg}
  3,                                      !- X Origin {m}
  67.7106781186548,                       !- Y Origin {m}
  0,                                      !- Z Origin {m}
  {e07ef4a7-739f-4d33-ba84-5140e8eaeb87}, !- Building Story Name
  {35fa3425-45df-4191-a1cf-30ef78f9dc7c}; !- Thermal Zone Name

OS:Surface,
  {6f9839e4-f21b-4aee-bf08-706094cdf548}, !- Handle
  Surface 7,                              !- Name
  Floor,                                  !- Surface Type
  ,                                       !- Construction Name
  {6336d60d-5881-4f92-8c6b-0a43a868d121}, !- Space Name
  Ground,                                 !- Outside Boundary Condition
  ,                                       !- Outside Boundary Condition Object
  NoSun,                                  !- Sun Exposure
  NoWind,                                 !- Wind Exposure
  ,                                       !- View Factor to Ground
  ,                                       !- Number of Vertices
  -3, 3.00000000000004, 0,                !- X,Y,Z Vertex 1 {m}
  67.7106781186548, 3.00000000000004, 0,  !- X,Y,Z Vertex 2 {m}
  64.7106781186548, 4.2632564145606e-14, 0, !- X,Y,Z Vertex 3 {m}
  0, 4.2632564145606e-14, 0;              !- X,Y,Z Vertex 4 {m}

OS:Surface,
  {95e04693-b213-43f1-901f-615e4d463e32}, !- Handle
  Surface 8,                              !- Name
  Wall,                                   !- Surface Type
  ,                                       !- Construction Name
  {6336d60d-5881-4f92-8c6b-0a43a868d121}, !- Space Name
  Outdoors,                               !- Outside Boundary Condition
  ,                                       !- Outside Boundary Condition Object
  SunExposed,                             !- Sun Exposure
  WindExposed,                            !- Wind Exposure
  ,                                       !- View Factor to Ground
  ,                                       !- Number of Vertices
  67.7106781186548, 3.00000000000004, 4,  !- X,Y,Z Vertex 1 {m}
  67.7106781186548, 3.00000000000004, 0,  !- X,Y,Z Vertex 2 {m}
  -3, 3.00000000000004, 0,                !- X,Y,Z Vertex 3 {m}
  -3, 3.00000000000004, 4;                !- X,Y,Z Vertex 4 {m}

OS:Surface,
  {37b17ab1-60c5-4a46-8b2a-a1de744f20be}, !- Handle
  Surface 9,                              !- Name
  Wall,                                   !- Surface Type
  ,                                       !- Construction Name
  {6336d60d-5881-4f92-8c6b-0a43a868d121}, !- Space Name
  Surface,                                !- Outside Boundary Condition
  {9e98c227-7828-45ec-a653-9df2834f5f0a}, !- Outside Boundary Condition Object
  NoSun,                                  !- Sun Exposure
  NoWind,                                 !- Wind Exposure
  ,                                       !- View Factor to Ground
  ,                                       !- Number of Vertices
  64.7106781186548, 4.2632564145606e-14, 4, !- X,Y,Z Vertex 1 {m}
  64.7106781186548, 4.2632564145606e-14, 0, !- X,Y,Z Vertex 2 {m}
  67.7106781186548, 3.00000000000004, 0,  !- X,Y,Z Vertex 3 {m}
  67.7106781186548, 3.00000000000004, 4;  !- X,Y,Z Vertex 4 {m}

OS:Surface,
  {4c49abe9-4405-4e0e-ab5f-48c4cd74c118}, !- Handle
  Surface 10,                             !- Name
  Wall,                                   !- Surface Type
  ,                                       !- Construction Name
  {6336d60d-5881-4f92-8c6b-0a43a868d121}, !- Space Name
  Surface,                                !- Outside Boundary Condition
  {cb8ff869-2a06-4296-b894-adc010d047ec}, !- Outside Boundary Condition Object
  NoSun,                                  !- Sun Exposure
  NoWind,                                 !- Wind Exposure
  ,                                       !- View Factor to Ground
  ,                                       !- Number of Vertices
  0, 4.2632564145606e-14, 4,              !- X,Y,Z Vertex 1 {m}
  0, 4.2632564145606e-14, 0,              !- X,Y,Z Vertex 2 {m}
  64.7106781186548, 4.2632564145606e-14, 0, !- X,Y,Z Vertex 3 {m}
  64.7106781186548, 4.2632564145606e-14, 4; !- X,Y,Z Vertex 4 {m}

OS:Surface,
  {4fd03237-3192-4362-99d7-80825508f51d}, !- Handle
  Surface 11,                             !- Name
  Wall,                                   !- Surface Type
  ,                                       !- Construction Name
  {6336d60d-5881-4f92-8c6b-0a43a868d121}, !- Space Name
  Surface,                                !- Outside Boundary Condition
  {77ae7298-9597-4a55-bb01-9130097faf62}, !- Outside Boundary Condition Object
  NoSun,                                  !- Sun Exposure
  NoWind,                                 !- Wind Exposure
  ,                                       !- View Factor to Ground
  ,                                       !- Number of Vertices
  -3, 3.00000000000004, 4,                !- X,Y,Z Vertex 1 {m}
  -3, 3.00000000000004, 0,                !- X,Y,Z Vertex 2 {m}
  0, 4.2632564145606e-14, 0,              !- X,Y,Z Vertex 3 {m}
  0, 4.2632564145606e-14, 4;              !- X,Y,Z Vertex 4 {m}

OS:Surface,
  {f7650314-0ab5-4a8c-90af-f23f891e5267}, !- Handle
  Surface 12,                             !- Name
  RoofCeiling,                            !- Surface Type
  ,                                       !- Construction Name
  {6336d60d-5881-4f92-8c6b-0a43a868d121}, !- Space Name
  Surface,                                !- Outside Boundary Condition
  {d293bd60-32d7-4cbd-a560-481899ab2465}, !- Outside Boundary Condition Object
  NoSun,                                  !- Sun Exposure
  NoWind,                                 !- Wind Exposure
  ,                                       !- View Factor to Ground
  ,                                       !- Number of Vertices
  0, 4.2632564145606e-14, 4,              !- X,Y,Z Vertex 1 {m}
  64.7106781186548, 4.2632564145606e-14, 4, !- X,Y,Z Vertex 2 {m}
  67.7106781186548, 3.00000000000004, 4,  !- X,Y,Z Vertex 3 {m}
  -3, 3.00000000000004, 4;                !- X,Y,Z Vertex 4 {m}

OS:Space,
  {07e0b585-4589-419b-8fb8-6aa08896b281}, !- Handle
  Story 1 East Perimeter Space,           !- Name
  ,                                       !- Space Type Name
  ,                                       !- Default Construction Set Name
  ,                                       !- Default Schedule Set Name
  -0,                                     !- Direction of Relative North {deg}
  67.7106781186548,                       !- X Origin {m}
  3,                                      !- Y Origin {m}
  0,                                      !- Z Origin {m}
  {e07ef4a7-739f-4d33-ba84-5140e8eaeb87}, !- Building Story Name
  {d927becc-c8a1-4554-ab92-b70d75b1fcae}; !- Thermal Zone Name

OS:Surface,
  {10898e5a-73ea-413f-bb0e-3a8c19ced3d3}, !- Handle
  Surface 13,                             !- Name
  Floor,                                  !- Surface Type
  ,                                       !- Construction Name
  {07e0b585-4589-419b-8fb8-6aa08896b281}, !- Space Name
  Ground,                                 !- Outside Boundary Condition
  ,                                       !- Outside Boundary Condition Object
  NoSun,                                  !- Sun Exposure
  NoWind,                                 !- Wind Exposure
  ,                                       !- View Factor to Ground
  ,                                       !- Number of Vertices
  3.00000000000004, 67.7106781186548, 0,  !- X,Y,Z Vertex 1 {m}
  3.00000000000004, -3, 0,                !- X,Y,Z Vertex 2 {m}
  4.2632564145606e-14, 0, 0,              !- X,Y,Z Vertex 3 {m}
  4.2632564145606e-14, 64.7106781186548, 0; !- X,Y,Z Vertex 4 {m}

OS:Surface,
  {7a0e8906-8ebf-4a32-a37e-4f0fc8010d7a}, !- Handle
  Surface 14,                             !- Name
  Wall,                                   !- Surface Type
  ,                                       !- Construction Name
  {07e0b585-4589-419b-8fb8-6aa08896b281}, !- Space Name
  Outdoors,                               !- Outside Boundary Condition
  ,                                       !- Outside Boundary Condition Object
  SunExposed,                             !- Sun Exposure
  WindExposed,                            !- Wind Exposure
  ,                                       !- View Factor to Ground
  ,                                       !- Number of Vertices
  3.00000000000004, -3, 4,                !- X,Y,Z Vertex 1 {m}
  3.00000000000004, -3, 0,                !- X,Y,Z Vertex 2 {m}
  3.00000000000004, 67.7106781186548, 0,  !- X,Y,Z Vertex 3 {m}
  3.00000000000004, 67.7106781186548, 4;  !- X,Y,Z Vertex 4 {m}

OS:Surface,
  {77b29faa-7592-49b5-bcbc-6b95c3e06425}, !- Handle
  Surface 15,                             !- Name
  Wall,                                   !- Surface Type
  ,                                       !- Construction Name
  {07e0b585-4589-419b-8fb8-6aa08896b281}, !- Space Name
  Surface,                                !- Outside Boundary Condition
  {2f9f986e-6a66-4217-b390-817d94679fa3}, !- Outside Boundary Condition Object
  NoSun,                                  !- Sun Exposure
  NoWind,                                 !- Wind Exposure
  ,                                       !- View Factor to Ground
  ,                                       !- Number of Vertices
  4.2632564145606e-14, 0, 4,              !- X,Y,Z Vertex 1 {m}
  4.2632564145606e-14, 0, 0,              !- X,Y,Z Vertex 2 {m}
  3.00000000000004, -3, 0,                !- X,Y,Z Vertex 3 {m}
  3.00000000000004, -3, 4;                !- X,Y,Z Vertex 4 {m}

OS:Surface,
  {89169333-64bb-467e-8310-8fd0fecb721e}, !- Handle
  Surface 16,                             !- Name
  Wall,                                   !- Surface Type
  ,                                       !- Construction Name
  {07e0b585-4589-419b-8fb8-6aa08896b281}, !- Space Name
  Surface,                                !- Outside Boundary Condition
  {83ffc8ee-e07f-4ff1-aa9b-74db534d2bae}, !- Outside Boundary Condition Object
  NoSun,                                  !- Sun Exposure
  NoWind,                                 !- Wind Exposure
  ,                                       !- View Factor to Ground
  ,                                       !- Number of Vertices
  4.2632564145606e-14, 64.7106781186548, 4, !- X,Y,Z Vertex 1 {m}
  4.2632564145606e-14, 64.7106781186548, 0, !- X,Y,Z Vertex 2 {m}
  4.2632564145606e-14, 0, 0,              !- X,Y,Z Vertex 3 {m}
  4.2632564145606e-14, 0, 4;              !- X,Y,Z Vertex 4 {m}

OS:Surface,
  {9e98c227-7828-45ec-a653-9df2834f5f0a}, !- Handle
  Surface 17,                             !- Name
  Wall,                                   !- Surface Type
  ,                                       !- Construction Name
  {07e0b585-4589-419b-8fb8-6aa08896b281}, !- Space Name
  Surface,                                !- Outside Boundary Condition
  {37b17ab1-60c5-4a46-8b2a-a1de744f20be}, !- Outside Boundary Condition Object
  NoSun,                                  !- Sun Exposure
  NoWind,                                 !- Wind Exposure
  ,                                       !- View Factor to Ground
  ,                                       !- Number of Vertices
  3.00000000000004, 67.7106781186548, 4,  !- X,Y,Z Vertex 1 {m}
  3.00000000000004, 67.7106781186548, 0,  !- X,Y,Z Vertex 2 {m}
  4.2632564145606e-14, 64.7106781186548, 0, !- X,Y,Z Vertex 3 {m}
  4.2632564145606e-14, 64.7106781186548, 4; !- X,Y,Z Vertex 4 {m}

OS:Surface,
  {e8b8b09b-51b7-4fb9-8899-744771256411}, !- Handle
  Surface 18,                             !- Name
  RoofCeiling,                            !- Surface Type
  ,                                       !- Construction Name
  {07e0b585-4589-419b-8fb8-6aa08896b281}, !- Space Name
  Surface,                                !- Outside Boundary Condition
  {8ede3028-f687-4dac-bee7-ca10bf352dc7}, !- Outside Boundary Condition Object
  NoSun,                                  !- Sun Exposure
  NoWind,                                 !- Wind Exposure
  ,                                       !- View Factor to Ground
  ,                                       !- Number of Vertices
  4.2632564145606e-14, 64.7106781186548, 4, !- X,Y,Z Vertex 1 {m}
  4.2632564145606e-14, 0, 4,              !- X,Y,Z Vertex 2 {m}
  3.00000000000004, -3, 4,                !- X,Y,Z Vertex 3 {m}
  3.00000000000004, 67.7106781186548, 4;  !- X,Y,Z Vertex 4 {m}

OS:Space,
  {e3bbfacc-d4a7-4e39-bbcf-2933d27517ac}, !- Handle
  Story 1 South Perimeter Space,          !- Name
  ,                                       !- Space Type Name
  ,                                       !- Default Construction Set Name
  ,                                       !- Default Schedule Set Name
  -0,                                     !- Direction of Relative North {deg}
  0,                                      !- X Origin {m}
  0,                                      !- Y Origin {m}
  0,                                      !- Z Origin {m}
  {e07ef4a7-739f-4d33-ba84-5140e8eaeb87}, !- Building Story Name
  {62c77592-d21e-40fe-8363-3838db9b2011}; !- Thermal Zone Name

OS:Surface,
  {4bc46dfd-5f5c-4ae5-b7a7-8c7ff695090b}, !- Handle
  Surface 19,                             !- Name
  Floor,                                  !- Surface Type
  ,                                       !- Construction Name
  {e3bbfacc-d4a7-4e39-bbcf-2933d27517ac}, !- Space Name
  Ground,                                 !- Outside Boundary Condition
  ,                                       !- Outside Boundary Condition Object
  NoSun,                                  !- Sun Exposure
  NoWind,                                 !- Wind Exposure
  ,                                       !- View Factor to Ground
  ,                                       !- Number of Vertices
  70.7106781186548, 0, 0,                 !- X,Y,Z Vertex 1 {m}
  0, 0, 0,                                !- X,Y,Z Vertex 2 {m}
  3, 3, 0,                                !- X,Y,Z Vertex 3 {m}
  67.7106781186548, 3, 0;                 !- X,Y,Z Vertex 4 {m}

OS:Surface,
  {75f312af-b1d7-42f7-b004-6ae3c1b3952b}, !- Handle
  Surface 20,                             !- Name
  Wall,                                   !- Surface Type
  ,                                       !- Construction Name
  {e3bbfacc-d4a7-4e39-bbcf-2933d27517ac}, !- Space Name
  Outdoors,                               !- Outside Boundary Condition
  ,                                       !- Outside Boundary Condition Object
  SunExposed,                             !- Sun Exposure
  WindExposed,                            !- Wind Exposure
  ,                                       !- View Factor to Ground
  ,                                       !- Number of Vertices
  0, 0, 4,                                !- X,Y,Z Vertex 1 {m}
  0, 0, 0,                                !- X,Y,Z Vertex 2 {m}
  70.7106781186548, 0, 0,                 !- X,Y,Z Vertex 3 {m}
  70.7106781186548, 0, 4;                 !- X,Y,Z Vertex 4 {m}

OS:Surface,
  {38461169-f4f9-45e5-a6bf-63462728ac8c}, !- Handle
  Surface 21,                             !- Name
  Wall,                                   !- Surface Type
  ,                                       !- Construction Name
  {e3bbfacc-d4a7-4e39-bbcf-2933d27517ac}, !- Space Name
  Surface,                                !- Outside Boundary Condition
  {908a0b04-4015-4947-a7da-2f1ddc406143}, !- Outside Boundary Condition Object
  NoSun,                                  !- Sun Exposure
  NoWind,                                 !- Wind Exposure
  ,                                       !- View Factor to Ground
  ,                                       !- Number of Vertices
  3, 3, 4,                                !- X,Y,Z Vertex 1 {m}
  3, 3, 0,                                !- X,Y,Z Vertex 2 {m}
  0, 0, 0,                                !- X,Y,Z Vertex 3 {m}
  0, 0, 4;                                !- X,Y,Z Vertex 4 {m}

OS:Surface,
  {55c6fe43-2cca-40f0-aa35-62eda3118883}, !- Handle
  Surface 22,                             !- Name
  Wall,                                   !- Surface Type
  ,                                       !- Construction Name
  {e3bbfacc-d4a7-4e39-bbcf-2933d27517ac}, !- Space Name
  Surface,                                !- Outside Boundary Condition
  {63d38c33-6db4-444e-9216-f776cfad012c}, !- Outside Boundary Condition Object
  NoSun,                                  !- Sun Exposure
  NoWind,                                 !- Wind Exposure
  ,                                       !- View Factor to Ground
  ,                                       !- Number of Vertices
  67.7106781186548, 3, 4,                 !- X,Y,Z Vertex 1 {m}
  67.7106781186548, 3, 0,                 !- X,Y,Z Vertex 2 {m}
  3, 3, 0,                                !- X,Y,Z Vertex 3 {m}
  3, 3, 4;                                !- X,Y,Z Vertex 4 {m}

OS:Surface,
  {2f9f986e-6a66-4217-b390-817d94679fa3}, !- Handle
  Surface 23,                             !- Name
  Wall,                                   !- Surface Type
  ,                                       !- Construction Name
  {e3bbfacc-d4a7-4e39-bbcf-2933d27517ac}, !- Space Name
  Surface,                                !- Outside Boundary Condition
  {77b29faa-7592-49b5-bcbc-6b95c3e06425}, !- Outside Boundary Condition Object
  NoSun,                                  !- Sun Exposure
  NoWind,                                 !- Wind Exposure
  ,                                       !- View Factor to Ground
  ,                                       !- Number of Vertices
  70.7106781186548, 0, 4,                 !- X,Y,Z Vertex 1 {m}
  70.7106781186548, 0, 0,                 !- X,Y,Z Vertex 2 {m}
  67.7106781186548, 3, 0,                 !- X,Y,Z Vertex 3 {m}
  67.7106781186548, 3, 4;                 !- X,Y,Z Vertex 4 {m}

OS:Surface,
  {298f7518-99fd-47c9-bd5b-68dc62591761}, !- Handle
  Surface 24,                             !- Name
  RoofCeiling,                            !- Surface Type
  ,                                       !- Construction Name
  {e3bbfacc-d4a7-4e39-bbcf-2933d27517ac}, !- Space Name
  Surface,                                !- Outside Boundary Condition
  {9e8de235-ecae-4bb2-9c02-d7dbe426c352}, !- Outside Boundary Condition Object
  NoSun,                                  !- Sun Exposure
  NoWind,                                 !- Wind Exposure
  ,                                       !- View Factor to Ground
  ,                                       !- Number of Vertices
  67.7106781186548, 3, 4,                 !- X,Y,Z Vertex 1 {m}
  3, 3, 4,                                !- X,Y,Z Vertex 2 {m}
  0, 0, 4,                                !- X,Y,Z Vertex 3 {m}
  70.7106781186548, 0, 4;                 !- X,Y,Z Vertex 4 {m}

OS:Space,
  {e31b0823-2b8b-4924-9d00-568a1eafc255}, !- Handle
  Story 1 Core Space,                     !- Name
  ,                                       !- Space Type Name
  ,                                       !- Default Construction Set Name
  ,                                       !- Default Schedule Set Name
  -0,                                     !- Direction of Relative North {deg}
  3,                                      !- X Origin {m}
  3,                                      !- Y Origin {m}
  0,                                      !- Z Origin {m}
  {e07ef4a7-739f-4d33-ba84-5140e8eaeb87}, !- Building Story Name
  {f61c9d8e-febd-4b48-9fcc-3125fbe38ba4}; !- Thermal Zone Name

OS:Surface,
  {53f102a6-4caf-41ee-a1a3-d533aeb5f48f}, !- Handle
  Surface 25,                             !- Name
  Floor,                                  !- Surface Type
  ,                                       !- Construction Name
  {e31b0823-2b8b-4924-9d00-568a1eafc255}, !- Space Name
  Ground,                                 !- Outside Boundary Condition
  ,                                       !- Outside Boundary Condition Object
  NoSun,                                  !- Sun Exposure
  NoWind,                                 !- Wind Exposure
  ,                                       !- View Factor to Ground
  ,                                       !- Number of Vertices
  0, 0, 0,                                !- X,Y,Z Vertex 1 {m}
  0, 64.7106781186548, 0,                 !- X,Y,Z Vertex 2 {m}
  64.7106781186548, 64.7106781186548, 0,  !- X,Y,Z Vertex 3 {m}
  64.7106781186548, 0, 0;                 !- X,Y,Z Vertex 4 {m}

OS:Surface,
  {1777dc31-2068-4254-97a3-eddb788a9436}, !- Handle
  Surface 26,                             !- Name
  Wall,                                   !- Surface Type
  ,                                       !- Construction Name
  {e31b0823-2b8b-4924-9d00-568a1eafc255}, !- Space Name
  Surface,                                !- Outside Boundary Condition
  {a5cd359b-a4b3-4a82-9492-5dbc6dadaae8}, !- Outside Boundary Condition Object
  NoSun,                                  !- Sun Exposure
  NoWind,                                 !- Wind Exposure
  ,                                       !- View Factor to Ground
  ,                                       !- Number of Vertices
  0, 64.7106781186548, 4,                 !- X,Y,Z Vertex 1 {m}
  0, 64.7106781186548, 0,                 !- X,Y,Z Vertex 2 {m}
  0, 0, 0,                                !- X,Y,Z Vertex 3 {m}
  0, 0, 4;                                !- X,Y,Z Vertex 4 {m}

OS:Surface,
  {cb8ff869-2a06-4296-b894-adc010d047ec}, !- Handle
  Surface 27,                             !- Name
  Wall,                                   !- Surface Type
  ,                                       !- Construction Name
  {e31b0823-2b8b-4924-9d00-568a1eafc255}, !- Space Name
  Surface,                                !- Outside Boundary Condition
  {4c49abe9-4405-4e0e-ab5f-48c4cd74c118}, !- Outside Boundary Condition Object
  NoSun,                                  !- Sun Exposure
  NoWind,                                 !- Wind Exposure
  ,                                       !- View Factor to Ground
  ,                                       !- Number of Vertices
  64.7106781186548, 64.7106781186548, 4,  !- X,Y,Z Vertex 1 {m}
  64.7106781186548, 64.7106781186548, 0,  !- X,Y,Z Vertex 2 {m}
  0, 64.7106781186548, 0,                 !- X,Y,Z Vertex 3 {m}
  0, 64.7106781186548, 4;                 !- X,Y,Z Vertex 4 {m}

OS:Surface,
  {83ffc8ee-e07f-4ff1-aa9b-74db534d2bae}, !- Handle
  Surface 28,                             !- Name
  Wall,                                   !- Surface Type
  ,                                       !- Construction Name