
OS:Version,
  {32f147fe-8c31-448b-a422-661a3958981b}, !- Handle
  0.10.0;                                 !- Version Identifier

OS:BuildingStory,
  {80e2db62-9b44-43ed-a216-2821094669dd}, !- Handle
  Story 1,                                !- Name
  0,                                      !- Nominal Z Coordinate {m}
  4,                                      !- Nominal Floor to Floor Height {m}
  ,                                       !- Default Construction Set Name
  ,                                       !- Default Schedule Set Name
  ;                                       !- Group Rendering Name

OS:Space,
  {bbecde64-990d-4446-9d60-4351df703694}, !- Handle
  Story 1 West Perimeter Space,           !- Name
  ,                                       !- Space Type Name
  ,                                       !- Default Construction Set Name
  ,                                       !- Default Schedule Set Name
  -0,                                     !- Direction of Relative North {deg}
  0,                                      !- X Origin {m}
  0,                                      !- Y Origin {m}
  0,                                      !- Z Origin {m}
  {80e2db62-9b44-43ed-a216-2821094669dd}, !- Building Story Name
  {26179a28-b352-4c09-9797-b23b1036ebb9}; !- Thermal Zone Name

OS:Surface,
  {765105dd-d4d6-4244-9ab7-ea2271c9f1d9}, !- Handle
  Surface 1,                              !- Name
  Floor,                                  !- Surface Type
  ,                                       !- Construction Name
  {bbecde64-990d-4446-9d60-4351df703694}, !- Space Name
  Ground,                                 !- Outside Boundary Condition
  ,                                       !- Outside Boundary Condition Object
  NoSun,                                  !- Sun Exposure
  NoWind,                                 !- Wind Exposure
  ,                                       !- View Factor to Ground
  ,                                       !- Number of Vertices
  0, 0, 0,                                !- X,Y,Z Vertex 1 {m}
  0, 15.8113883008419, 0,                 !- X,Y,Z Vertex 2 {m}
  3, 12.8113883008419, 0,                 !- X,Y,Z Vertex 3 {m}
  3, 3, 0;                                !- X,Y,Z Vertex 4 {m}

OS:Surface,
  {76daaef6-bb63-4b73-b459-bfd8a70b4620}, !- Handle
  Surface 2,                              !- Name
  Wall,                                   !- Surface Type
  ,                                       !- Construction Name
  {bbecde64-990d-4446-9d60-4351df703694}, !- Space Name
  Outdoors,                               !- Outside Boundary Condition
  ,                                       !- Outside Boundary Condition Object
  SunExposed,                             !- Sun Exposure
  WindExposed,                            !- Wind Exposure
  ,                                       !- View Factor to Ground
  ,                                       !- Number of Vertices
  0, 15.8113883008419, 4,                 !- X,Y,Z Vertex 1 {m}
  0, 15.8113883008419, 0,                 !- X,Y,Z Vertex 2 {m}
  0, 0, 0,                                !- X,Y,Z Vertex 3 {m}
  0, 0, 4;                                !- X,Y,Z Vertex 4 {m}

OS:Surface,
  {eeb175ae-510f-442f-bddd-3519d44351ad}, !- Handle
  Surface 3,                              !- Name
  Wall,                                   !- Surface Type
  ,                                       !- Construction Name
  {bbecde64-990d-4446-9d60-4351df703694}, !- Space Name
  Surface,                                !- Outside Boundary Condition
  {786a1290-3e27-436c-ad4e-cd3a79d90a80}, !- Outside Boundary Condition Object
  NoSun,                                  !- Sun Exposure
  NoWind,                                 !- Wind Exposure
  ,                                       !- View Factor to Ground
  ,                                       !- Number of Vertices
  3, 12.8113883008419, 4,                 !- X,Y,Z Vertex 1 {m}
  3, 12.8113883008419, 0,                 !- X,Y,Z Vertex 2 {m}
  0, 15.8113883008419, 0,                 !- X,Y,Z Vertex 3 {m}
  0, 15.8113883008419, 4;                 !- X,Y,Z Vertex 4 {m}

OS:Surface,
  {5b54ccec-678c-4112-8a8e-6940339512c0}, !- Handle
  Surface 4,                              !- Name
  Wall,                                   !- Surface Type
  ,                                       !- Construction Name
  {bbecde64-990d-4446-9d60-4351df703694}, !- Space Name
  Surface,                                !- Outside Boundary Condition
  {06c3b1df-9611-40a3-ba42-3eed5f119a3a}, !- Outside Boundary Condition Object
  NoSun,                                  !- Sun Exposure
  NoWind,                                 !- Wind Exposure
  ,                                       !- View Factor to Ground
  ,                                       !- Number of Vertices
  3, 3, 4,                                !- X,Y,Z Vertex 1 {m}
  3, 3, 0,                                !- X,Y,Z Vertex 2 {m}
  3, 12.8113883008419, 0,                 !- X,Y,Z Vertex 3 {m}
  3, 12.8113883008419, 4;                 !- X,Y,Z Vertex 4 {m}

OS:Surface,
  {177e90e8-a7aa-43ad-b4a2-0bcfbd27abfa}, !- Handle
  Surface 5,                              !- Name
  Wall,                                   !- Surface Type
  ,                                       !- Construction Name
  {bbecde64-990d-4446-9d60-4351df703694}, !- Space Name
  Surface,                                !- Outside Boundary Condition
  {2e26de59-a5c9-4bbb-9b9e-fa4d702c015a}, !- Outside Boundary Condition Object
  NoSun,                                  !- Sun Exposure
  NoWind,                                 !- Wind Exposure
  ,                                       !- View Factor to Ground
  ,                                       !- Number of Vertices
  0, 0, 4,                                !- X,Y,Z Vertex 1 {m}
  0, 0, 0,                                !- X,Y,Z Vertex 2 {m}
  3, 3, 0,                                !- X,Y,Z Vertex 3 {m}
  3, 3, 4;                                !- X,Y,Z Vertex 4 {m}

OS:Surface,
  {433e8a41-72de-4646-a22f-c18db70992ed}, !- Handle
  Surface 6,                              !- Name
  RoofCeiling,                            !- Surface Type
  ,                                       !- Construction Name
  {bbecde64-990d-4446-9d60-4351df703694}, !- Space Name
  Surface,                                !- Outside Boundary Condition
  {15679618-beec-40ef-97d1-04d2c73684e1}, !- Outside Boundary Condition Object
  NoSun,                                  !- Sun Exposure
  NoWind,                                 !- Wind Exposure
  ,                                       !- View Factor to Ground
  ,                                       !- Number of Vertices
  3, 3, 4,                                !- X,Y,Z Vertex 1 {m}
  3, 12.8113883008419, 4,                 !- X,Y,Z Vertex 2 {m}
  0, 15.8113883008419, 4,                 !- X,Y,Z Vertex 3 {m}
  0, 0, 4;                                !- X,Y,Z Vertex 4 {m}

OS:Space,
  {49d02b00-41bc-4b95-913b-d13c94a2c041}, !- Handle
  Story 1 North Perimeter Space,          !- Name
  ,                                       !- Space Type Name
  ,                                       !- Default Construction Set Name
  ,                                       !- Default Schedule Set Name
  -0,                                     !- Direction of Relative North {deg}
  3,                                      !- X Origin {m}
  12.8113883008419,                       !- Y Origin {m}
  0,                                      !- Z Origin {m}
  {80e2db62-9b44-43ed-a216-2821094669dd}, !- Building Story Name
  {38ccc78d-f596-4943-a7ed-a3512891a311}; !- Thermal Zone Name

OS:Surface,
  {6481fe98-5fe3-4c3b-baa9-3e8d65ea096f}, !- Handle
  Surface 7,                              !- Name
  Floor,                                  !- Surface Type
  ,                                       !- Construction Name
  {49d02b00-41bc-4b95-913b-d13c94a2c041}, !- Space Name
  Ground,                                 !- Outside Boundary Condition
  ,                                       !- Outside Boundary Condition Object
  NoSun,                                  !- Sun Exposure
  NoWind,                                 !- Wind Exposure
  ,                                       !- View Factor to Ground
  ,                                       !- Number of Vertices
  -3, 3, 0,                               !- X,Y,Z Vertex 1 {m}
  12.8113883008419, 3, 0,                 !- X,Y,Z Vertex 2 {m}
  9.8113883008419, 3.5527136788005e-15, 0, !- X,Y,Z Vertex 3 {m}
  0, 3.5527136788005e-15, 0;              !- X,Y,Z Vertex 4 {m}

OS:Surface,
  {a8e4a91e-7659-4555-bfd3-d3bb60dd7ca0}, !- Handle
  Surface 8,                              !- Name
  Wall,                                   !- Surface Type
  ,                                       !- Construction Name
  {49d02b00-41bc-4b95-913b-d13c94a2c041}, !- Space Name
  Outdoors,                               !- Outside Boundary Condition
  ,                                       !- Outside Boundary Condition Object
  SunExposed,                             !- Sun Exposure
  WindExposed,                            !- Wind Exposure
  ,                                       !- View Factor to Ground
  ,                                       !- Number of Vertices
  12.8113883008419, 3, 4,                 !- X,Y,Z Vertex 1 {m}
  12.8113883008419, 3, 0,                 !- X,Y,Z Vertex 2 {m}
  -3, 3, 0,                               !- X,Y,Z Vertex 3 {m}
  -3, 3, 4;                               !- X,Y,Z Vertex 4 {m}

OS:Surface,
  {2dd0d47c-cd0c-44dd-b724-f9789274d1a1}, !- Handle
  Surface 9,                              !- Name
  Wall,                                   !- Surface Type
  ,                                       !- Construction Name
  {49d02b00-41bc-4b95-913b-d13c94a2c041}, !- Space Name
  Surface,                                !- Outside Boundary Condition
  {338b3755-a978-43f7-8e00-8afb61b709d1}, !- Outside Boundary Condition Object
  NoSun,                                  !- Sun Exposure
  NoWind,                                 !- Wind Exposure
  ,                                       !- View Factor to Ground
  ,                                       !- Number of Vertices
  9.8113883008419, 3.5527136788005e-15, 4, !- X,Y,Z Vertex 1 {m}
  9.8113883008419, 3.5527136788005e-15, 0, !- X,Y,Z Vertex 2 {m}
  12.8113883008419, 3, 0,                 !- X,Y,Z Vertex 3 {m}
  12.8113883008419, 3, 4;                 !- X,Y,Z Vertex 4 {m}

OS:Surface,
  {ea333399-d148-4660-98d2-f9346bd31a47}, !- Handle
  Surface 10,                             !- Name
  Wall,                                   !- Surface Type
  ,                                       !- Construction Name
  {49d02b00-41bc-4b95-913b-d13c94a2c041}, !- Space Name
  Surface,                                !- Outside Boundary Condition
  {8575f810-4c8f-4e19-8577-3a7e3c7e1235}, !- Outside Boundary Condition Object
  NoSun,                                  !- Sun Exposure
  NoWind,                                 !- Wind Exposure
  ,                                       !- View Factor to Ground
  ,                                       !- Number of Vertices
  0, 3.5527136788005e-15, 4,              !- X,Y,Z Vertex 1 {m}
  0, 3.5527136788005e-15, 0,              !- X,Y,Z Vertex 2 {m}
  9.8113883008419, 3.5527136788005e-15, 0, !- X,Y,Z Vertex 3 {m}
  9.8113883008419, 3.5527136788005e-15, 4; !- X,Y,Z Vertex 4 {m}

OS:Surface,
  {786a1290-3e27-436c-ad4e-cd3a79d90a80}, !- Handle
  Surface 11,                             !- Name
  Wall,                                   !- Surface Type
  ,                                       !- Construction Name
  {49d02b00-41bc-4b95-913b-d13c94a2c041}, !- Space Name
  Surface,                                !- Outside Boundary Condition
  {eeb175ae-510f-442f-bddd-3519d44351ad}, !- Outside Boundary Condition Object
  NoSun,                                  !- Sun Exposure
  NoWind,                                 !- Wind Exposure
  ,                                       !- View Factor to Ground
  ,                                       !- Number of Vertices
  -3, 3, 4,                               !- X,Y,Z Vertex 1 {m}
  -3, 3, 0,                               !- X,Y,Z Vertex 2 {m}
  0, 3.5527136788005e-15, 0,              !- X,Y,Z Vertex 3 {m}
  0, 3.5527136788005e-15, 4;              !- X,Y,Z Vertex 4 {m}

OS:Surface,
  {9ffda8f1-644b-4944-b448-269a033880f6}, !- Handle
  Surface 12,                             !- Name
  RoofCeiling,                            !- Surface Type
  ,                                       !- Construction Name
  {49d02b00-41bc-4b95-913b-d13c94a2c041}, !- Space Name
  Surface,                                !- Outside Boundary Condition
  {0b34f07d-aac8-43a2-9824-dd2ff87b120c}, !- Outside Boundary Condition Object
  NoSun,                                  !- Sun Exposure
  NoWind,                                 !- Wind Exposure
  ,                                       !- View Factor to Ground
  ,                                       !- Number of Vertices
  0, 3.5527136788005e-15, 4,              !- X,Y,Z Vertex 1 {m}
  9.8113883008419, 3.5527136788005e-15, 4, !- X,Y,Z Vertex 2 {m}
  12.8113883008419, 3, 4,                 !- X,Y,Z Vertex 3 {m}
  -3, 3, 4;                               !- X,Y,Z Vertex 4 {m}

OS:Space,
  {c6d858b2-9fa5-4849-b1d4-6c96cf78c9af}, !- Handle
  Story 1 East Perimeter Space,           !- Name
  ,                                       !- Space Type Name
  ,                                       !- Default Construction Set Name
  ,                                       !- Default Schedule Set Name
  -0,                                     !- Direction of Relative North {deg}
  12.8113883008419,                       !- X Origin {m}
  3,                                      !- Y Origin {m}
  0,                                      !- Z Origin {m}
  {80e2db62-9b44-43ed-a216-2821094669dd}, !- Building Story Name
  {3e58bdae-0aef-4ed2-bf13-f0a5e0dfe15f}; !- Thermal Zone Name

OS:Surface,
  {b6d3754e-4836-45b5-960d-7572812f9089}, !- Handle
  Surface 13,                             !- Name
  Floor,                                  !- Surface Type
  ,                                       !- Construction Name
  {c6d858b2-9fa5-4849-b1d4-6c96cf78c9af}, !- Space Name
  Ground,                                 !- Outside Boundary Condition
  ,                                       !- Outside Boundary Condition Object
  NoSun,                                  !- Sun Exposure
  NoWind,                                 !- Wind Exposure
  ,                                       !- View Factor to Ground
  ,                                       !- Number of Vertices
  3, 12.8113883008419, 0,                 !- X,Y,Z Vertex 1 {m}
  3, -3, 0,                               !- X,Y,Z Vertex 2 {m}
  3.5527136788005e-15, 0, 0,              !- X,Y,Z Vertex 3 {m}
  3.5527136788005e-15, 9.8113883008419, 0; !- X,Y,Z Vertex 4 {m}

OS:Surface,
  {d47c067f-e391-4307-9532-7276b621df37}, !- Handle
  Surface 14,                             !- Name
  Wall,                                   !- Surface Type
  ,                                       !- Construction Name
  {c6d858b2-9fa5-4849-b1d4-6c96cf78c9af}, !- Space Name
  Outdoors,                               !- Outside Boundary Condition
  ,                                       !- Outside Boundary Condition Object
  SunExposed,                             !- Sun Exposure
  WindExposed,                            !- Wind Exposure
  ,                                       !- View Factor to Ground
  ,                                       !- Number of Vertices
  3, -3, 4,                               !- X,Y,Z Vertex 1 {m}
  3, -3, 0,                               !- X,Y,Z Vertex 2 {m}
  3, 12.8113883008419, 0,                 !- X,Y,Z Vertex 3 {m}
  3, 12.8113883008419, 4;                 !- X,Y,Z Vertex 4 {m}

OS:Surface,
  {b2c88eea-840c-408f-90c0-f340f9f2d06d}, !- Handle
  Surface 15,                             !- Name
  Wall,                                   !- Surface Type
  ,                                       !- Construction Name
  {c6d858b2-9fa5-4849-b1d4-6c96cf78c9af}, !- Space Name
  Surface,                                !- Outside Boundary Condition
  {ec59ae14-bced-4c86-a0e2-7d2808ae2976}, !- Outside Boundary Condition Object
  NoSun,                                  !- Sun Exposure
  NoWind,                                 !- Wind Exposure
  ,                                       !- View Factor to Ground
  ,                                       !- Number of Vertices
  3.5527136788005e-15, 0, 4,              !- X,Y,Z Vertex 1 {m}
  3.5527136788005e-15, 0, 0,              !- X,Y,Z Vertex 2 {m}
  3, -3, 0,                               !- X,Y,Z Vertex 3 {m}
  3, -3, 4;                               !- X,Y,Z Vertex 4 {m}

OS:Surface,
  {127db9a6-8d1d-4cdc-85da-ab7d3d4fab4b}, !- Handle
  Surface 16,                             !- Name
  Wall,                                   !- Surface Type
  ,                                       !- Construction Name
  {c6d858b2-9fa5-4849-b1d4-6c96cf78c9af}, !- Space Name
  Surface,                                !- Outside Boundary Condition
  {8ec4b0ef-9141-43a7-a7d0-f95f2c2719b3}, !- Outside Boundary Condition Object
  NoSun,                                  !- Sun Exposure
  NoWind,                                 !- Wind Exposure
  ,                                       !- View Factor to Ground
  ,                                       !- Number of Vertices
  3.5527136788005e-15, 9.8113883008419, 4, !- X,Y,Z Vertex 1 {m}
  3.5527136788005e-15, 9.8113883008419, 0, !- X,Y,Z Vertex 2 {m}
  3.5527136788005e-15, 0, 0,              !- X,Y,Z Vertex 3 {m}
  3.5527136788005e-15, 0, 4;              !- X,Y,Z Vertex 4 {m}

OS:Surface,
  {338b3755-a978-43f7-8e00-8afb61b709d1}, !- Handle
  Surface 17,                             !- Name
  Wall,                                   !- Surface Type
  ,                                       !- Construction Name
  {c6d858b2-9fa5-4849-b1d4-6c96cf78c9af}, !- Space Name
  Surface,                                !- Outside Boundary Condition
  {2dd0d47c-cd0c-44dd-b724-f9789274d1a1}, !- Outside Boundary Condition Object
  NoSun,                                  !- Sun Exposure
  NoWind,                                 !- Wind Exposure
  ,                                       !- View Factor to Ground
  ,                                       !- Number of Vertices
  3, 12.8113883008419, 4,                 !- X,Y,Z Vertex 1 {m}
  3, 12.8113883008419, 0,                 !- X,Y,Z Vertex 2 {m}
  3.5527136788005e-15, 9.8113883008419, 0, !- X,Y,Z Vertex 3 {m}
  3.5527136788005e-15, 9.8113883008419, 4; !- X,Y,Z Vertex 4 {m}

OS:Surface,
  {a52eb5e1-c8f2-4784-a5ba-ec2b9f146ac9}, !- Handle
  Surface 18,                             !- Name
  RoofCeiling,                            !- Surface Type
  ,                                       !- Construction Name
  {c6d858b2-9fa5-4849-b1d4-6c96cf78c9af}, !- Space Name
  Surface,                                !- Outside Boundary Condition
  {9b5ace28-8095-4fe5-99c0-0fd05962cd26}, !- Outside Boundary Condition Object
  NoSun,                                  !- Sun Exposure
  NoWind,                                 !- Wind Exposure
  ,                                       !- View Factor to Ground
  ,                                       !- Number of Vertices
  3.5527136788005e-15, 9.8113883008419, 4, !- X,Y,Z Vertex 1 {m}
  3.5527136788005e-15, 0, 4,              !- X,Y,Z Vertex 2 {m}
  3, -3, 4,                               !- X,Y,Z Vertex 3 {m}
  3, 12.8113883008419, 4;                 !- X,Y,Z Vertex 4 {m}

OS:Space,
  {fb8d6772-23a2-4a15-9c35-0ce5c324bac5}, !- Handle
  Story 1 South Perimeter Space,          !- Name
  ,                                       !- Space Type Name
  ,                                       !- Default Construction Set Name
  ,                                       !- Default Schedule Set Name
  -0,                                     !- Direction of Relative North {deg}
  0,                                      !- X Origin {m}
  0,                                      !- Y Origin {m}
  0,                                      !- Z Origin {m}
  {80e2db62-9b44-43ed-a216-2821094669dd}, !- Building Story Name
  {7f15e592-3e12-4a2d-aa34-5b0b8c282fb7}; !- Thermal Zone Name

OS:Surface,
  {806fe994-e407-425a-a1e7-0258b166ce37}, !- Handle
  Surface 19,                             !- Name
  Floor,                                  !- Surface Type
  ,                                       !- Construction Name
  {fb8d6772-23a2-4a15-9c35-0ce5c324bac5}, !- Space Name
  Ground,                                 !- Outside Boundary Condition
  ,                                       !- Outside Boundary Condition Object
  NoSun,                                  !- Sun Exposure
  NoWind,                                 !- Wind Exposure
  ,                                       !- View Factor to Ground
  ,                                       !- Number of Vertices
  15.8113883008419, 0, 0,                 !- X,Y,Z Vertex 1 {m}
  0, 0, 0,                                !- X,Y,Z Vertex 2 {m}
  3, 3, 0,                                !- X,Y,Z Vertex 3 {m}
  12.8113883008419, 3, 0;                 !- X,Y,Z Vertex 4 {m}

OS:Surface,
  {0a23d87d-70a8-48fe-a4a8-c18ffb1ec43d}, !- Handle
  Surface 20,                             !- Name
  Wall,                                   !- Surface Type
  ,                                       !- Construction Name
  {fb8d6772-23a2-4a15-9c35-0ce5c324bac5}, !- Space Name
  Outdoors,                               !- Outside Boundary Condition
  ,                                       !- Outside Boundary Condition Object
  SunExposed,                             !- Sun Exposure
  WindExposed,                            !- Wind Exposure
  ,                                       !- View Factor to Ground
  ,                                       !- Number of Vertices
  0, 0, 4,                                !- X,Y,Z Vertex 1 {m}
  0, 0, 0,                                !- X,Y,Z Vertex 2 {m}
  15.8113883008419, 0, 0,                 !- X,Y,Z Vertex 3 {m}
  15.8113883008419, 0, 4;                 !- X,Y,Z Vertex 4 {m}

OS:Surface,
  {2e26de59-a5c9-4bbb-9b9e-fa4d702c015a}, !- Handle
  Surface 21,                             !- Name
  Wall,                                   !- Surface Type
  ,                                       !- Construction Name
  {fb8d6772-23a2-4a15-9c35-0ce5c324bac5}, !- Space Name
  Surface,                                !- Outside Boundary Condition
  {177e90e8-a7aa-43ad-b4a2-0bcfbd27abfa}, !- Outside Boundary Condition Object
  NoSun,                                  !- Sun Exposure
  NoWind,                                 !- Wind Exposure
  ,                                       !- View Factor to Ground
  ,                                       !- Number of Vertices
  3, 3, 4,                                !- X,Y,Z Vertex 1 {m}
  3, 3, 0,                                !- X,Y,Z Vertex 2 {m}
  0, 0, 0,                                !- X,Y,Z Vertex 3 {m}
  0, 0, 4;                                !- X,Y,Z Vertex 4 {m}

OS:Surface,
  {98a08fd3-273c-4b7c-8389-a4d6ab780f91}, !- Handle
  Surface 22,                             !- Name
  Wall,                                   !- Surface Type
  ,                                       !- Construction Name
  {fb8d6772-23a2-4a15-9c35-0ce5c324bac5}, !- Space Name
  Surface,                                !- Outside Boundary Condition
  {f01b6905-a6eb-4f7a-a927-54a3207c6c3f}, !- Outside Boundary Condition Object
  NoSun,                                  !- Sun Exposure
  NoWind,                                 !- Wind Exposure
  ,                                       !- View Factor to Ground
  ,                                       !- Number of Vertices
  12.8113883008419, 3, 4,                 !- X,Y,Z Vertex 1 {m}
  12.8113883008419, 3, 0,                 !- X,Y,Z Vertex 2 {m}
  3, 3, 0,                                !- X,Y,Z Vertex 3 {m}
  3, 3, 4;                                !- X,Y,Z Vertex 4 {m}

OS:Surface,
  {ec59ae14-bced-4c86-a0e2-7d2808ae2976}, !- Handle
  Surface 23,                             !- Name
  Wall,                                   !- Surface Type
  ,                                       !- Construction Name
  {fb8d6772-23a2-4a15-9c35-0ce5c324bac5}, !- Space Name
  Surface,                                !- Outside Boundary Condition
  {b2c88eea-840c-408f-90c0-f340f9f2d06d}, !- Outside Boundary Condition Object
  NoSun,                                  !- Sun Exposure
  NoWind,                                 !- Wind Exposure
  ,                                       !- View Factor to Ground
  ,                                       !- Number of Vertices
  15.8113883008419, 0, 4,                 !- X,Y,Z Vertex 1 {m}
  15.8113883008419, 0, 0,                 !- X,Y,Z Vertex 2 {m}
  12.8113883008419, 3, 0,                 !- X,Y,Z Vertex 3 {m}
  12.8113883008419, 3, 4;                 !- X,Y,Z Vertex 4 {m}

OS:Surface,
  {145b79f0-8a7e-4f28-9671-cc13916a3d4d}, !- Handle
  Surface 24,                             !- Name
  RoofCeiling,                            !- Surface Type
  ,                                       !- Construction Name
  {fb8d6772-23a2-4a15-9c35-0ce5c324bac5}, !- Space Name
  Surface,                                !- Outside Boundary Condition
  {1f07947f-871e-4585-a697-edcc8a03abda}, !- Outside Boundary Condition Object
  NoSun,                                  !- Sun Exposure
  NoWind,                                 !- Wind Exposure
  ,                                       !- View Factor to Ground
  ,                                       !- Number of Vertices
  12.8113883008419, 3, 4,                 !- X,Y,Z Vertex 1 {m}
  3, 3, 4,                                !- X,Y,Z Vertex 2 {m}
  0, 0, 4,                                !- X,Y,Z Vertex 3 {m}
  15.8113883008419, 0, 4;                 !- X,Y,Z Vertex 4 {m}

OS:Space,
  {0e4bccb7-88e7-43d4-a968-3c0e1b8c4fb6}, !- Handle
  Story 1 Core Space,                     !- Name
  ,                                       !- Space Type Name
  ,                                       !- Default Construction Set Name
  ,                                       !- Default Schedule Set Name
  -0,                                     !- Direction of Relative North {deg}
  3,                                      !- X Origin {m}
  3,                                      !- Y Origin {m}
  0,                                      !- Z Origin {m}
  {80e2db62-9b44-43ed-a216-2821094669dd}, !- Building Story Name
  {5dc720fd-aba5-4585-b08d-a428a6f40ae0}; !- Thermal Zone Name

OS:Surface,
  {4b2064cf-6ee7-48c6-ba63-934d2b761e20}, !- Handle
  Surface 25,                             !- Name
  Floor,                                  !- Surface Type
  ,                                       !- Construction Name
  {0e4bccb7-88e7-43d4-a968-3c0e1b8c4fb6}, !- Space Name
  Ground,                                 !- Outside Boundary Condition
  ,                                       !- Outside Boundary Condition Object
  NoSun,                                  !- Sun Exposure
  NoWind,                                 !- Wind Exposure
  ,                                       !- View Factor to Ground
  ,                                       !- Number of Vertices
  0, 0, 0,                                !- X,Y,Z Vertex 1 {m}
  0, 9.8113883008419, 0,                  !- X,Y,Z Vertex 2 {m}
  9.8113883008419, 9.8113883008419, 0,    !- X,Y,Z Vertex 3 {m}
  9.8113883008419, 0, 0;                  !- X,Y,Z Vertex 4 {m}

OS:Surface,
  {06c3b1df-9611-40a3-ba42-3eed5f119a3a}, !- Handle
  Surface 26,                             !- Name
  Wall,                                   !- Surface Type
  ,                                       !- Construction Name
  {0e4bccb7-88e7-43d4-a968-3c0e1b8c4fb6}, !- Space Name
  Surface,                                !- Outside Boundary Condition
  {5b54ccec-678c-4112-8a8e-6940339512c0}, !- Outside Boundary Condition Object
  NoSun,                                  !- Sun Exposure
  NoWind,                                 !- Wind Exposure
  ,                                       !- View Factor to Ground
  ,                                       !- Number of Vertices
  0, 9.8113883008419, 4,                  !- X,Y,Z Vertex 1 {m}
  0, 9.8113883008419, 0,                  !- X,Y,Z Vertex 2 {m}
  0, 0, 0,                                !- X,Y,Z Vertex 3 {m}
  0, 0, 4;                                !- X,Y,Z Vertex 4 {m}

OS:Surface,
  {8575f810-4c8f-4e19-8577-3a7e3c7e1235}, !- Handle
  Surface 27,                             !- Name
  Wall,                                   !- Surface Type
  ,                                       !- Construction Name
  {0e4bccb7-88e7-43d4-a968-3c0e1b8c4fb6}, !- Space Name
  Surface,                                !- Outside Boundary Condition
  {ea333399-d148-4660-98d2-f9346bd31a47}, !- Outside Boundary Condition Object
  NoSun,                                  !- Sun Exposure
  NoWind,                                 !- Wind Exposure
  ,                                       !- View Factor to Ground
  ,                                       !- Number of Vertices
  9.8113883008419, 9.8113883008419, 4,    !- X,Y,Z Vertex 1 {m}
  9.8113883008419, 9.8113883008419, 0,    !- X,Y,Z Vertex 2 {m}
  0, 9.8113883008419, 0,                  !- X,Y,Z Vertex 3 {m}
  0, 9.8113883008419, 4;                  !- X,Y,Z Vertex 4 {m}

OS:Surface,
  {8ec4b0ef-9141-43a7-a7d0-f95f2c2719b3}, !- Handle
  Surface 28,                             !- Name
  Wall,                                   !- Surface Type
  ,                                       !- Construction Name
  {0e4bccb7-88e7-43d4-a968-3c0e1b8c4fb6}, !- Space Name