
OS:Version,
  {f3d86152-23cc-4952-b5bf-bf57a6657b5e}, !- Handle
  0.10.0;                                 !- Version Identifier

OS:BuildingStory,
  {b7a7ff91-e9a6-4231-bca7-9888aac8a4de}, !- Handle
  Story 1,                                !- Name
  0,                                      !- Nominal Z Coordinate {m}
  4,                                      !- Nominal Floor to Floor Height {m}
  ,                                       !- Default Construction Set Name
  ,                                       !- Default Schedule Set Name
  ;                                       !- Group Rendering Name

OS:Space,
  {ecc48eb4-8697-4fb8-a9fb-f367f734bfd8}, !- Handle
  Story 1 West Perimeter Space,           !- Name
  ,                                       !- Space Type Name
  ,                                       !- Default Construction Set Name
  ,                                       !- Default Schedule Set Name
  -0,                                     !- Direction of Relative North {deg}
  0,                                      !- X Origin {m}
  0,                                      !- Y Origin {m}
  0,                                      !- Z Origin {m}
  {b7a7ff91-e9a6-4231-bca7-9888aac8a4de}, !- Building Story Name
  {354dcae5-8e28-499b-b808-c34edc622dd4}; !- Thermal Zone Name

OS:Surface,
  {6af6272f-9ddb-4bbb-939f-5f424481d32b}, !- Handle
  Surface 1,                              !- Name
  Floor,                                  !- Surface Type
  ,                                       !- Construction Name
  {ecc48eb4-8697-4fb8-a9fb-f367f734bfd8}, !- Space Name
  Ground,                                 !- Outside Boundary Condition
  ,                                       !- Outside Boundary Condition Object
  NoSun,                                  !- Sun Exposure
  NoWind,                                 !- Wind Exposure
  ,                                       !- View Factor to Ground
  ,                                       !- Number of Vertices
  0, 0, 0,                                !- X,Y,Z Vertex 1 {m}
  0, 10, 0,                               !- X,Y,Z Vertex 2 {m}
  3, 7, 0,                                !- X,Y,Z Vertex 3 {m}
  3, 3, 0;                                !- X,Y,Z Vertex 4 {m}

OS:Surface,
  {507c067f-d0de-44ed-8231-28e3f317f62e}, !- Handle
  Surface 2,                              !- Name
  Wall,                                   !- Surface Type
  ,                                       !- Construction Name
  {ecc48eb4-8697-4fb8-a9fb-f367f734bfd8}, !- Space Name
  Outdoors,                               !- Outside Boundary Condition
  ,                                       !- Outside Boundary Condition Object
  SunExposed,                             !- Sun Exposure
  WindExposed,                            !- Wind Exposure
  ,                                       !- View Factor to Ground
  ,                                       !- Number of Vertices
  0, 10, 4,                               !- X,Y,Z Vertex 1 {m}
  0, 10, 0,                               !- X,Y,Z Vertex 2 {m}
  0, 0, 0,                                !- X,Y,Z Vertex 3 {m}
  0, 0, 4;                                !- X,Y,Z Vertex 4 {m}

OS:Surface,
  {40c50372-9153-49ba-a164-ec565d2062c9}, !- Handle
  Surface 3,                              !- Name
  Wall,                                   !- Surface Type
  ,                                       !- Construction Name
  {ecc48eb4-8697-4fb8-a9fb-f367f734bfd8}, !- Space Name
  Surface,                                !- Outside Boundary Condition
  {8a80fb59-3819-47ce-a51f-db88c08fe5bb}, !- Outside Boundary Condition Object
  NoSun,                                  !- Sun Exposure
  NoWind,                                 !- Wind Exposure
  ,                                       !- View Factor to Ground
  ,                                       !- Number of Vertices
  3, 7, 4,                                !- X,Y,Z Vertex 1 {m}
  3, 7, 0,                                !- X,Y,Z Vertex 2 {m}
  0, 10, 0,                               !- X,Y,Z Vertex 3 {m}
  0, 10, 4;                               !- X,Y,Z Vertex 4 {m}

OS:Surface,
  {a2f8a4f8-77d7-4d0d-b4ac-ff70a5b7ff5d}, !- Handle
  Surface 4,                              !- Name
  Wall,                                   !- Surface Type
  ,                                       !- Construction Name
  {ecc48eb4-8697-4fb8-a9fb-f367f734bfd8}, !- Space Name
  Surface,                                !- Outside Boundary Condition
  {8ccce7c5-50cf-4986-bffa-1d2a3f97a0e8}, !- Outside Boundary Condition Object
  NoSun,                                  !- Sun Exposure
  NoWind,                                 !- Wind Exposure
  ,                                       !- View Factor to Ground
  ,                                       !- Number of Vertices
  3, 3, 4,                                !- X,Y,Z Vertex 1 {m}
  3, 3, 0,                                !- X,Y,Z Vertex 2 {m}
  3, 7, 0,                                !- X,Y,Z Vertex 3 {m}
  3, 7, 4;                                !- X,Y,Z Vertex 4 {m}

OS:Surface,
  {c90996de-17ce-406e-bbb3-f21e57e41269}, !- Handle
  Surface 5,                              !- Name
  Wall,                                   !- Surface Type
  ,                                       !- Construction Name
  {ecc48eb4-8697-4fb8-a9fb-f367f734bfd8}, !- Space Name
  Surface,                                !- Outside Boundary Condition
  {8bd220b4-126a-4ae5-8266-38dc3b933eac}, !- Outside Boundary Condition Object
  NoSun,                                  !- Sun Exposure
  NoWind,                                 !- Wind Exposure
  ,                                       !- View Factor to Ground
  ,                                       !- Number of Vertices
  0, 0, 4,                                !- X,Y,Z Vertex 1 {m}
  0, 0, 0,                                !- X,Y,Z Vertex 2 {m}
  3, 3, 0,                                !- X,Y,Z Vertex 3 {m}
  3, 3, 4;                                !- X,Y,Z Vertex 4 {m}

OS:Surface,
  {97c2c6cc-9e8f-4332-823b-765c3198764a}, !- Handle
  Surface 6,                              !- Name
  RoofCeiling,                            !- Surface Type
  ,                                       !- Construction Name
  {ecc48eb4-8697-4fb8-a9fb-f367f734bfd8}, !- Space Name
  Outdoors,                               !- Outside Boundary Condition
  ,                                       !- Outside Boundary Condition Object
  SunExposed,                             !- Sun Exposure
  WindExposed,                            !- Wind Exposure
  ,                                       !- View Factor to Ground
  ,                                       !- Number of Vertices
  3, 3, 4,                                !- X,Y,Z Vertex 1 {m}
  3, 7, 4,                                !- X,Y,Z Vertex 2 {m}
  0, 10, 4,                               !- X,Y,Z Vertex 3 {m}
  0, 0, 4;                                !- X,Y,Z Vertex 4 {m}

OS:Space,
  {330905f9-b66a-4cb9-bf80-a1d861bd2110}, !- Handle
  Story 1 North Perimeter Space,          !- Name
  ,                                       !- Space Type Name
  ,                                       !- Default Construction Set Name
  ,                                       !- Default Schedule Set Name
  -0,                                     !- Direction of Relative North {deg}
  3,                                      !- X Origin {m}
  7,                                      !- Y Origin {m}
  0,                                      !- Z Origin {m}
  {b7a7ff91-e9a6-4231-bca7-9888aac8a4de}, !- Building Story Name
  {5fa57df4-ded2-4112-8359-930bb2e54265}; !- Thermal Zone Name

OS:Surface,
  {ac72e207-0313-450d-b791-d5929cfaceea}, !- Handle
  Surface 7,                              !- Name
  Floor,                                  !- Surface Type
  ,                                       !- Construction Name
  {330905f9-b66a-4cb9-bf80-a1d861bd2110}, !- Space Name
  Ground,                                 !- Outside Boundary Condition
  ,                                       !- Outside Boundary Condition Object
  NoSun,                                  !- Sun Exposure
  NoWind,                                 !- Wind Exposure
  ,                                       !- View Factor to Ground
  ,                                       !- Number of Vertices
  -3, 3, 0,                               !- X,Y,Z Vertex 1 {m}
  7, 3, 0,                                !- X,Y,Z Vertex 2 {m}
  4, 0, 0,                                !- X,Y,Z Vertex 3 {m}
  0, 0, 0;                                !- X,Y,Z Vertex 4 {m}

OS:Surface,
  {efc84ca1-0ce8-4f2f-9722-7f670fb61562}, !- Handle
  Surface 8,                              !- Name
  Wall,                                   !- Surface Type
  ,                                       !- Construction Name
  {330905f9-b66a-4cb9-bf80-a1d861bd2110}, !- Space Name
  Outdoors,                               !- Outside Boundary Condition
  ,                                       !- Outside Boundary Condition Object
  SunExposed,                             !- Sun Exposure
  WindExposed,                            !- Wind Exposure
  ,                                       !- View Factor to Ground
  ,                                       !- Number of Vertices
  7, 3, 4,                                !- X,Y,Z Vertex 1 {m}
  7, 3, 0,                                !- X,Y,Z Vertex 2 {m}
  -3, 3, 0,                               !- X,Y,Z Vertex 3 {m}
  -3, 3, 4;                               !- X,Y,Z Vertex 4 {m}

OS:Surface,
  {34f35f81-3fec-4285-acf5-515f8437f674}, !- Handle
  Surface 9,                              !- Name
  Wall,                                   !- Surface Type
  ,                                       !- Construction Name
  {330905f9-b66a-4cb9-bf80-a1d861bd2110}, !- Space Name
  Surface,                                !- Outside Boundary Condition
  {745aabab-f328-428d-91e0-493537b6b131}, !- Outside Boundary Condition Object
  NoSun,                                  !- Sun Exposure
  NoWind,                                 !- Wind Exposure
  ,                                       !- View Factor to Ground
  ,                                       !- Number of Vertices
  4, 0, 4,                                !- X,Y,Z Vertex 1 {m}
  4, 0, 0,                                !- X,Y,Z Vertex 2 {m}
  7, 3, 0,                                !- X,Y,Z Vertex 3 {m}
  7, 3, 4;                                !- X,Y,Z Vertex 4 {m}

OS:Surface,
  {175a44ce-64bb-46be-95d5-9caaade08e0a}, !- Handle
  Surface 10,                             !- Name
  Wall,                                   !- Surface Type
  ,                                       !- Construction Name
  {330905f9-b66a-4cb9-bf80-a1d861bd2110}, !- Space Name
  Surface,                                !- Outside Boundary Condition
  {e6740f5e-40c0-40f4-848d-25f1b05b4457}, !- Outside Boundary Condition Object
  NoSun,                                  !- Sun Exposure
  NoWind,                                 !- Wind Exposure
  ,                                       !- View Factor to Ground
  ,                                       !- Number of Vertices
  0, 0, 4,                                !- X,Y,Z Vertex 1 {m}
  0, 0, 0,                                !- X,Y,Z Vertex 2 {m}
  4, 0, 0,                                !- X,Y,Z Vertex 3 {m}
  4, 0, 4;                                !- X,Y,Z Vertex 4 {m}

OS:Surface,
  {8a80fb59-3819-47ce-a51f-db88c08fe5bb}, !- Handle
  Surface 11,                             !- Name
  Wall,                                   !- Surface Type
  ,                                       !- Construction Name
  {330905f9-b66a-4cb9-bf80-a1d861bd2110}, !- Space Name
  Surface,                                !- Outside Boundary Condition
  {40c50372-9153-49ba-a164-ec565d2062c9}, !- Outside Boundary Condition Object
  NoSun,                                  !- Sun Exposure
  NoWind,                                 !- Wind Exposure
  ,                                       !- View Factor to Ground
  ,                                       !- Number of Vertices
  -3, 3, 4,                               !- X,Y,Z Vertex 1 {m}
  -3, 3, 0,                               !- X,Y,Z Vertex 2 {m}
  0, 0, 0,                                !- X,Y,Z Vertex 3 {m}
  0, 0, 4;                                !- X,Y,Z Vertex 4 {m}

OS:Surface,
  {489ac6a0-dc0d-47bf-b856-cbe9146a2a2e}, !- Handle
  Surface 12,                             !- Name
  RoofCeiling,                            !- Surface Type
  ,                                       !- Construction Name
  {330905f9-b66a-4cb9-bf80-a1d861bd2110}, !- Space Name
  Outdoors,                               !- Outside Boundary Condition
  ,                                       !- Outside Boundary Condition Object
  SunExposed,                             !- Sun Exposure
  WindExposed,                            !- Wind Exposure
  ,                                       !- View Factor to Ground
  ,                                       !- Number of Vertices
  0, 0, 4,                                !- X,Y,Z Vertex 1 {m}
  4, 0, 4,                                !- X,Y,Z Vertex 2 {m}
  7, 3, 4,                                !- X,Y,Z Vertex 3 {m}
  -3, 3, 4;                               !- X,Y,Z Vertex 4 {m}

OS:Space,
  {715b9e49-c8be-4429-a44c-f82610e96f0d}, !- Handle
  Story 1 East Perimeter Space,           !- Name
  ,                                       !- Space Type Name
  ,                                       !- Default Construction Set Name
  ,                                       !- Default Schedule Set Name
  -0,                                     !- Direction of Relative North {deg}
  7,                                      !- X Origin {m}
  3,                                      !- Y Origin {m}
  0,                                      !- Z Origin {m}
  {b7a7ff91-e9a6-4231-bca7-9888aac8a4de}, !- Building Story Name
  {4050d144-b6c0-489c-a856-0c3348e8e1e5}; !- Thermal Zone Name

OS:Surface,
  {0a2c8106-cdff-48f9-96ef-0189f7302cd8}, !- Handle
  Surface 13,                             !- Name
  Floor,                                  !- Surface Type
  ,                                       !- Construction Name
  {715b9e49-c8be-4429-a44c-f82610e96f0d}, !- Space Name
  Ground,                                 !- Outside Boundary Condition
  ,                                       !- Outside Boundary Condition Object
  NoSun,                                  !- Sun Exposure
  NoWind,                                 !- Wind Exposure
  ,                                       !- View Factor to Ground
  ,                                       !- Number of Vertices
  3, 7, 0,                                !- X,Y,Z Vertex 1 {m}
  3, -3, 0,                               !- X,Y,Z Vertex 2 {m}
  0, 0, 0,                                !- X,Y,Z Vertex 3 {m}
  0, 4, 0;                                !- X,Y,Z Vertex 4 {m}

OS:Surface,
  {f1d3799e-ccb7-47e8-8f92-c49624fe8f60}, !- Handle
  Surface 14,                             !- Name
  Wall,                                   !- Surface Type
  ,                                       !- Construction Name
  {715b9e49-c8be-4429-a44c-f82610e96f0d}, !- Space Name
  Outdoors,                               !- Outside Boundary Condition
  ,                                       !- Outside Boundary Condition Object
  SunExposed,                             !- Sun Exposure
  WindExposed,                            !- Wind Exposure
  ,                                       !- View Factor to Ground
  ,                                       !- Number of Vertices
  3, -3, 4,                               !- X,Y,Z Vertex 1 {m}
  3, -3, 0,                               !- X,Y,Z Vertex 2 {m}
  3, 7, 0,                                !- X,Y,Z Vertex 3 {m}
  3, 7, 4;                                !- X,Y,Z Vertex 4 {m}

OS:Surface,
  {23de6179-221c-45e5-a3cf-03f35ee087e8}, !- Handle
  Surface 15,                             !- Name
  Wall,                                   !- Surface Type
  ,                                       !- Construction Name
  {715b9e49-c8be-4429-a44c-f82610e96f0d}, !- Space Name
  Surface,                                !- Outside Boundary Condition
  {8976732f-f767-4ba2-b108-80241e505a52}, !- Outside Boundary Condition Object
  NoSun,                                  !- Sun Exposure
  NoWind,                                 !- Wind Exposure
  ,                                       !- View Factor to Ground
  ,                                       !- Number of Vertices
  0, 0, 4,                                !- X,Y,Z Vertex 1 {m}
  0, 0, 0,                                !- X,Y,Z Vertex 2 {m}
  3, -3, 0,                               !- X,Y,Z Vertex 3 {m}
  3, -3, 4;                               !- X,Y,Z Vertex 4 {m}

OS:Surface,
  {449a068a-1dc8-4dcc-b438-5aabd59b0471}, !- Handle
  Surface 16,                             !- Name
  Wall,                                   !- Surface Type
  ,                                       !- Construction Name
  {715b9e49-c8be-4429-a44c-f82610e96f0d}, !- Space Name
  Surface,                                !- Outside Boundary Condition
  {f2930d9f-da55-40ed-87fa-efd8738c26f6}, !- Outside Boundary Condition Object
  NoSun,                                  !- Sun Exposure
  NoWind,                                 !- Wind Exposure
  ,                                       !- View Factor to Ground
  ,                                       !- Number of Vertices
  0, 4, 4,                                !- X,Y,Z Vertex 1 {m}
  0, 4, 0,                                !- X,Y,Z Vertex 2 {m}
  0, 0, 0,                                !- X,Y,Z Vertex 3 {m}
  0, 0, 4;                                !- X,Y,Z Vertex 4 {m}

OS:Surface,
  {745aabab-f328-428d-91e0-493537b6b131}, !- Handle
  Surface 17,                             !- Name
  Wall,                                   !- Surface Type
  ,                                       !- Construction Name
  {715b9e49-c8be-4429-a44c-f82610e96f0d}, !- Space Name
  Surface,                                !- Outside Boundary Condition
  {34f35f81-3fec-4285-acf5-515f8437f674}, !- Outside Boundary Condition Object
  NoSun,                                  !- Sun Exposure
  NoWind,                                 !- Wind Exposure
  ,                                       !- View Factor to Ground
  ,                                       !- Number of Vertices
  3, 7, 4,                                !- X,Y,Z Vertex 1 {m}
  3, 7, 0,                                !- X,Y,Z Vertex 2 {m}
  0, 4, 0,                                !- X,Y,Z Vertex 3 {m}
  0, 4, 4;                                !- X,Y,Z Vertex 4 {m}

OS:Surface,
  {59599dd4-e715-489f-87a3-d1bb3edd1891}, !- Handle
  Surface 18,                             !- Name
  RoofCeiling,                            !- Surface Type
  ,                                       !- Construction Name
  {715b9e49-c8be-4429-a44c-f82610e96f0d}, !- Space Name
  Outdoors,                               !- Outside Boundary Condition
  ,                                       !- Outside Boundary Condition Object
  SunExposed,                             !- Sun Exposure
  WindExposed,                            !- Wind Exposure
  ,                                       !- View Factor to Ground
  ,                                       !- Number of Vertices
  0, 4, 4,                                !- X,Y,Z Vertex 1 {m}
  0, 0, 4,                                !- X,Y,Z Vertex 2 {m}
  3, -3, 4,                               !- X,Y,Z Vertex 3 {m}
  3, 7, 4;                                !- X,Y,Z Vertex 4 {m}

OS:Space,
  {e7c65f23-9eb2-4d56-bb15-611cfa0cf37d}, !- Handle
  Story 1 South Perimeter Space,          !- Name
  ,                                       !- Space Type Name
  ,                                       !- Default Construction Set Name
  ,                                       !- Default Schedule Set Name
  -0,                                     !- Direction of Relative North {deg}
  0,                                      !- X Origin {m}
  0,                                      !- Y Origin {m}
  0,                                      !- Z Origin {m}
  {b7a7ff91-e9a6-4231-bca7-9888aac8a4de}, !- Building Story Name
  {0b2217be-c650-4f8f-9fc5-671c78640ecc}; !- Thermal Zone Name

OS:Surface,
  {d9ec2454-93e1-4b52-a68c-559cab276ffc}, !- Handle
  Surface 19,                             !- Name
  Floor,                                  !- Surface Type
  ,                                       !- Construction Name
  {e7c65f23-9eb2-4d56-bb15-611cfa0cf37d}, !- Space Name
  Ground,                                 !- Outside Boundary Condition
  ,                                       !- Outside Boundary Condition Object
  NoSun,                                  !- Sun Exposure
  NoWind,                                 !- Wind Exposure
  ,                                       !- View Factor to Ground
  ,                                       !- Number of Vertices
  10, 0, 0,                               !- X,Y,Z Vertex 1 {m}
  0, 0, 0,                                !- X,Y,Z Vertex 2 {m}
  3, 3, 0,                                !- X,Y,Z Vertex 3 {m}
  7, 3, 0;                                !- X,Y,Z Vertex 4 {m}

OS:Surface,
  {1825b357-8081-47de-8a2d-d51dece46c6f}, !- Handle
  Surface 20,                             !- Name
  Wall,                                   !- Surface Type
  ,                                       !- Construction Name
  {e7c65f23-9eb2-4d56-bb15-611cfa0cf37d}, !- Space Name
  Outdoors,                               !- Outside Boundary Condition
  ,                                       !- Outside Boundary Condition Object
  SunExposed,                             !- Sun Exposure
  WindExposed,                            !- Wind Exposure
  ,                                       !- View Factor to Ground
  ,                                       !- Number of Vertices
  0, 0, 4,                                !- X,Y,Z Vertex 1 {m}
  0, 0, 0,                                !- X,Y,Z Vertex 2 {m}
  10, 0, 0,                               !- X,Y,Z Vertex 3 {m}
  10, 0, 4;                               !- X,Y,Z Vertex 4 {m}

OS:Surface,
  {8bd220b4-126a-4ae5-8266-38dc3b933eac}, !- Handle
  Surface 21,                             !- Name
  Wall,                                   !- Surface Type
  ,                                       !- Construction Name
  {e7c65f23-9eb2-4d56-bb15-611cfa0cf37d}, !- Space Name
  Surface,                                !- Outside Boundary Condition
  {c90996de-17ce-406e-bbb3-f21e57e41269}, !- Outside Boundary Condition Object
  NoSun,                                  !- Sun Exposure
  NoWind,                                 !- Wind Exposure
  ,                                       !- View Factor to Ground
  ,                                       !- Number of Vertices
  3, 3, 4,                                !- X,Y,Z Vertex 1 {m}
  3, 3, 0,                                !- X,Y,Z Vertex 2 {m}
  0, 0, 0,                                !- X,Y,Z Vertex 3 {m}
  0, 0, 4;                                !- X,Y,Z Vertex 4 {m}

OS:Surface,
  {a7a35c74-9a89-41ff-a8fa-da6e7fe527c4}, !- Handle
  Surface 22,                             !- Name
  Wall,                                   !- Surface Type
  ,                                       !- Construction Name
  {e7c65f23-9eb2-4d56-bb15-611cfa0cf37d}, !- Space Name
  Surface,                                !- Outside Boundary Condition
  {445e1c16-7070-4b84-9cc7-4d706eec3bdd}, !- Outside Boundary Condition Object
  NoSun,                                  !- Sun Exposure
  NoWind,                                 !- Wind Exposure
  ,                                       !- View Factor to Ground
  ,                                       !- Number of Vertices
  7, 3, 4,                                !- X,Y,Z Vertex 1 {m}
  7, 3, 0,                                !- X,Y,Z Vertex 2 {m}
  3, 3, 0,                                !- X,Y,Z Vertex 3 {m}
  3, 3, 4;                                !- X,Y,Z Vertex 4 {m}

OS:Surface,
  {8976732f-f767-4ba2-b108-80241e505a52}, !- Handle
  Surface 23,                             !- Name
  Wall,                                   !- Surface Type
  ,                                       !- Construction Name
  {e7c65f23-9eb2-4d56-bb15-611cfa0cf37d}, !- Space Name
  Surface,                                !- Outside Boundary Condition
  {23de6179-221c-45e5-a3cf-03f35ee087e8}, !- Outside Boundary Condition Object
  NoSun,                                  !- Sun Exposure
  NoWind,                                 !- Wind Exposure
  ,                                       !- View Factor to Ground
  ,                                       !- Number of Vertices
  10, 0, 4,                               !- X,Y,Z Vertex 1 {m}
  10, 0, 0,                               !- X,Y,Z Vertex 2 {m}
  7, 3, 0,                                !- X,Y,Z Vertex 3 {m}
  7, 3, 4;                                !- X,Y,Z Vertex 4 {m}

OS:Surface,
  {a39419e6-89a5-4a46-84ed-f4aeda9f6a10}, !- Handle
  Surface 24,                             !- Name
  RoofCeiling,                            !- Surface Type
  ,                                       !- Construction Name
  {e7c65f23-9eb2-4d56-bb15-611cfa0cf37d}, !- Space Name
  Outdoors,                               !- Outside Boundary Condition
  ,                                       !- Outside Boundary Condition Object
  SunExposed,                             !- Sun Exposure
  WindExposed,                            !- Wind Exposure
  ,                                       !- View Factor to Ground
  ,                                       !- Number of Vertices
  7, 3, 4,                                !- X,Y,Z Vertex 1 {m}
  3, 3, 4,                                !- X,Y,Z Vertex 2 {m}
  0, 0, 4,                                !- X,Y,Z Vertex 3 {m}
  10, 0, 4;                               !- X,Y,Z Vertex 4 {m}

OS:Space,
  {6680e875-456c-485e-b600-c2e91bc422bf}, !- Handle
  Story 1 Core Space,                     !- Name
  ,                                       !- Space Type Name
  ,                                       !- Default Construction Set Name
  ,                                       !- Default Schedule Set Name
  -0,                                     !- Direction of Relative North {deg}
  3,                                      !- X Origin {m}
  3,                                      !- Y Origin {m}
  0,                                      !- Z Origin {m}
  {b7a7ff91-e9a6-4231-bca7-9888aac8a4de}, !- Building Story Name
  {40aa4765-d1d5-4fa7-9f34-15f208099b91}; !- Thermal Zone Name

OS:Surface,
  {2d41d956-9e45-4d97-bfc5-5f3d319641b4}, !- Handle
  Surface 25,                             !- Name
  Floor,                                  !- Surface Type
  ,                                       !- Construction Name
  {6680e875-456c-485e-b600-c2e91bc422bf}, !- Space Name
  Ground,                                 !- Outside Boundary Condition
  ,                                       !- Outside Boundary Condition Object
  NoSun,                                  !- Sun Exposure
  NoWind,                                 !- Wind Exposure
  ,                                       !- View Factor to Ground
  ,                                       !- Number of Vertices
  0, 0, 0,                                !- X,Y,Z Vertex 1 {m}
  0, 4, 0,                                !- X,Y,Z Vertex 2 {m}
  4, 4, 0,                                !- X,Y,Z Vertex 3 {m}
  4, 0, 0;                                !- X,Y,Z Vertex 4 {m}

OS:Surface,
  {8ccce7c5-50cf-4986-bffa-1d2a3f97a0e8}, !- Handle
  Surface 26,                             !- Name
  Wall,                                   !- Surface Type
  ,                                       !- Construction Name
  {6680e875-456c-485e-b600-c2e91bc422bf}, !- Space Name
  Surface,                                !- Outside Boundary Condition
  {a2f8a4f8-77d7-4d0d-b4ac-ff70a5b7ff5d}, !- Outside Boundary Condition Object
  NoSun,                                  !- Sun Exposure
  NoWind,                                 !- Wind Exposure
  ,                                       !- View Factor to Ground
  ,                                       !- Number of Vertices
  0, 4, 4,                                !- X,Y,Z Vertex 1 {m}
  0, 4, 0,                                !- X,Y,Z Vertex 2 {m}
  0, 0, 0,                                !- X,Y,Z Vertex 3 {m}
  0, 0, 4;                                !- X,Y,Z Vertex 4 {m}

OS:Surface,
  {e6740f5e-40c0-40f4-848d-25f1b05b4457}, !- Handle
  Surface 27,                             !- Name
  Wall,                                   !- Surface Type
  ,                                       !- Construction Name
  {6680e875-456c-485e-b600-c2e91bc422bf}, !- Space Name
  Surface,                                !- Outside Boundary Condition
  {175a44ce-64bb-46be-95d5-9caaade08e0a}, !- Outside Boundary Condition Object
  NoSun,                                  !- Sun Exposure
  NoWind,                                 !- Wind Exposure
  ,                                       !- View Factor to Ground
  ,                                       !- Number of Vertices
  4, 4, 4,                                !- X,Y,Z Vertex 1 {m}
  4, 4, 0,                                !- X,Y,Z Vertex 2 {m}
  0, 4, 0,                                !- X,Y,Z Vertex 3 {m}
  0, 4, 4;                                !- X,Y,Z Vertex 4 {m}

OS:Surface,
  {f2930d9f-da55-40ed-87fa-efd8738c26f6}, !- Handle
  Surface 28,                             !- Name
  Wall,                                   !- Surface Type
  ,                                       !- Construction Name
  {6680e875-456c-485e-b600-c2e91bc422bf}, !- Space Name