
OS:Version,
  {45e3b18a-b7ee-4fc9-8095-74d0a887769d}, !- Handle
  0.10.0;                                 !- Version Identifier

OS:BuildingStory,
  {5a2c5c4b-3c33-4cb3-ac14-7549d2c6ca9f}, !- Handle
  Story 1,                                !- Name
  0,                                      !- Nominal Z Coordinate {m}
  4,                                      !- Nominal Floor to Floor Height {m}
  ,                                       !- Default Construction Set Name
  ,                                       !- Default Schedule Set Name
  ;                                       !- Group Rendering Name

OS:Space,
  {e353d497-e2c8-4044-b23c-1a3fac7bd9e8}, !- Handle
  Story 1 West Perimeter Space,           !- Name
  ,                                       !- Space Type Name
  ,                                       !- Default Construction Set Name
  ,                                       !- Default Schedule Set Name
  -0,                                     !- Direction of Relative North {deg}
  0,                                      !- X Origin {m}
  0,                                      !- Y Origin {m}
  0,                                      !- Z Origin {m}
  {5a2c5c4b-3c33-4cb3-ac14-7549d2c6ca9f}, !- Building Story Name
  {3aa49e8b-bda1-49ac-8fe8-aa9f59ca8dc8}; !- Thermal Zone Name

OS:Surface,
  {9e37e371-470d-4367-ae36-fd206187d499}, !- Handle
  Surface 1,                              !- Name
  Floor,                                  !- Surface Type
  ,                                       !- Construction Name
  {e353d497-e2c8-4044-b23c-1a3fac7bd9e8}, !- Space Name
  Ground,                                 !- Outside Boundary Condition
  ,                                       !- Outside Boundary Condition Object
  NoSun,                                  !- Sun Exposure
  NoWind,                                 !- Wind Exposure
  ,                                       !- View Factor to Ground
  ,                                       !- Number of Vertices
  0, 0, 0,                                !- X,Y,Z Vertex 1 {m}
  0, 22.6053091109146, 0,                 !- X,Y,Z Vertex 2 {m}
  3, 19.6053091109146, 0,                 !- X,Y,Z Vertex 3 {m}
  3, 3, 0;                                !- X,Y,Z Vertex 4 {m}

OS:Surface,
  {fa1296c3-2a1a-4f14-822b-39e4c1f17484}, !- Handle
  Surface 2,                              !- Name
  Wall,                                   !- Surface Type
  ,                                       !- Construction Name
  {e353d497-e2c8-4044-b23c-1a3fac7bd9e8}, !- Space Name
  Outdoors,                               !- Outside Boundary Condition
  ,                                       !- Outside Boundary Condition Object
  SunExposed,                             !- Sun Exposure
  WindExposed,                            !- Wind Exposure
  ,                                       !- View Factor to Ground
  ,                                       !- Number of Vertices
  0, 22.6053091109146, 4,                 !- X,Y,Z Vertex 1 {m}
  0, 22.6053091109146, 0,                 !- X,Y,Z Vertex 2 {m}
  0, 0, 0,                                !- X,Y,Z Vertex 3 {m}
  0, 0, 4;                                !- X,Y,Z Vertex 4 {m}

OS:Surface,
  {aefc0688-891a-4cb0-bf37-a5d729f34944}, !- Handle
  Surface 3,                              !- Name
  Wall,                                   !- Surface Type
  ,                                       !- Construction Name
  {e353d497-e2c8-4044-b23c-1a3fac7bd9e8}, !- Space Name
  Surface,                                !- Outside Boundary Condition
  {5da8d281-01f9-40d7-add1-1ee108702cc6}, !- Outside Boundary Condition Object
  NoSun,                                  !- Sun Exposure
  NoWind,                                 !- Wind Exposure
  ,                                       !- View Factor to Ground
  ,                                       !- Number of Vertices
  3, 19.6053091109146, 4,                 !- X,Y,Z Vertex 1 {m}
  3, 19.6053091109146, 0,                 !- X,Y,Z Vertex 2 {m}
  0, 22.6053091109146, 0,                 !- X,Y,Z Vertex 3 {m}
  0, 22.6053091109146, 4;                 !- X,Y,Z Vertex 4 {m}

OS:Surface,
  {855c46fb-3c5e-4168-957f-5882cb7c8068}, !- Handle
  Surface 4,                              !- Name
  Wall,                                   !- Surface Type
  ,                                       !- Construction Name
  {e353d497-e2c8-4044-b23c-1a3fac7bd9e8}, !- Space Name
  Surface,                                !- Outside Boundary Condition
  {b1bfd75a-65c6-4211-b152-f7cc059b8931}, !- Outside Boundary Condition Object
  NoSun,                                  !- Sun Exposure
  NoWind,                                 !- Wind Exposure
  ,                                       !- View Factor to Ground
  ,                                       !- Number of Vertices
  3, 3, 4,                                !- X,Y,Z Vertex 1 {m}
  3, 3, 0,                                !- X,Y,Z Vertex 2 {m}
  3, 19.6053091109146, 0,                 !- X,Y,Z Vertex 3 {m}
  3, 19.6053091109146, 4;                 !- X,Y,Z Vertex 4 {m}

OS:Surface,
  {2adb0a48-7e54-433f-9353-18772ac198cc}, !- Handle
  Surface 5,                              !- Name
  Wall,                                   !- Surface Type
  ,                                       !- Construction Name
  {e353d497-e2c8-4044-b23c-1a3fac7bd9e8}, !- Space Name
  Surface,                                !- Outside Boundary Condition
  {ac82ddfc-6a0c-445e-a82c-4f5dacd67962}, !- Outside Boundary Condition Object
  NoSun,                                  !- Sun Exposure
  NoWind,                                 !- Wind Exposure
  ,                                       !- View Factor to Ground
  ,                                       !- Number of Vertices
  0, 0, 4,                                !- X,Y,Z Vertex 1 {m}
  0, 0, 0,                                !- X,Y,Z Vertex 2 {m}
  3, 3, 0,                                !- X,Y,Z Vertex 3 {m}
  3, 3, 4;                                !- X,Y,Z Vertex 4 {m}

OS:Surface,
  {9d05198e-3282-4cfe-aef5-f0f041c48475}, !- Handle
  Surface 6,                              !- Name
  RoofCeiling,                            !- Surface Type
  ,                                       !- Construction Name
  {e353d497-e2c8-4044-b23c-1a3fac7bd9e8}, !- Space Name
  Outdoors,                               !- Outside Boundary Condition
  ,                                       !- Outside Boundary Condition Object
  SunExposed,                             !- Sun Exposure
  WindExposed,                            !- Wind Exposure
  ,                                       !- View Factor to Ground
  ,                                       !- Number of Vertices
  3, 3, 4,                                !- X,Y,Z Vertex 1 {m}
  3, 19.6053091109146, 4,                 !- X,Y,Z Vertex 2 {m}
  0, 22.6053091109146, 4,                 !- X,Y,Z Vertex 3 {m}
  0, 0, 4;                                !- X,Y,Z Vertex 4 {m}

OS:Space,
  {5184d6a1-d9a0-4616-9eda-9a1418f2de79}, !- Handle
  Story 1 North Perimeter Space,          !- Name
  ,                                       !- Space Type Name
  ,                                       !- Default Construction Set Name
  ,                                       !- Default Schedule Set Name
  -0,                                     !- Direction of Relative North {deg}
  3,                                      !- X Origin {m}
  19.6053091109146,                       !- Y Origin {m}
  0,                                      !- Z Origin {m}
  {5a2c5c4b-3c33-4cb3-ac14-7549d2c6ca9f}, !- Building Story Name
  {1ea02e72-dfee-47c3-b5e4-d45d18dd5ec3}; !- Thermal Zone Name

OS:Surface,
  {dad13147-f365-455c-b321-c57dfd38a1b7}, !- Handle
  Surface 7,                              !- Name
  Floor,                                  !- Surface Type
  ,                                       !- Construction Name
  {5184d6a1-d9a0-4616-9eda-9a1418f2de79}, !- Space Name
  Ground,                                 !- Outside Boundary Condition
  ,                                       !- Outside Boundary Condition Object
  NoSun,                                  !- Sun Exposure
  NoWind,                                 !- Wind Exposure
  ,                                       !- View Factor to Ground
  ,                                       !- Number of Vertices
  -3, 2.99999999999997, 0,                !- X,Y,Z Vertex 1 {m}
  19.6053091109146, 2.99999999999997, 0,  !- X,Y,Z Vertex 2 {m}
  16.6053091109146, -2.8421709430404e-14, 0, !- X,Y,Z Vertex 3 {m}
  0, -2.8421709430404e-14, 0;             !- X,Y,Z Vertex 4 {m}

OS:Surface,
  {fc2b6852-973c-4faa-a08d-017d6bf81e3e}, !- Handle
  Surface 8,                              !- Name
  Wall,                                   !- Surface Type
  ,                                       !- Construction Name
  {5184d6a1-d9a0-4616-9eda-9a1418f2de79}, !- Space Name
  Outdoors,                               !- Outside Boundary Condition
  ,                                       !- Outside Boundary Condition Object
  SunExposed,                             !- Sun Exposure
  WindExposed,                            !- Wind Exposure
  ,                                       !- View Factor to Ground
  ,                                       !- Number of Vertices
  19.6053091109146, 2.99999999999997, 4,  !- X,Y,Z Vertex 1 {m}
  19.6053091109146, 2.99999999999997, 0,  !- X,Y,Z Vertex 2 {m}
  -3, 2.99999999999997, 0,                !- X,Y,Z Vertex 3 {m}
  -3, 2.99999999999997, 4;                !- X,Y,Z Vertex 4 {m}

OS:Surface,
  {5453b5ff-5fca-408a-911a-bab04407d416}, !- Handle
  Surface 9,                              !- Name
  Wall,                                   !- Surface Type
  ,                                       !- Construction Name
  {5184d6a1-d9a0-4616-9eda-9a1418f2de79}, !- Space Name
  Surface,                                !- Outside Boundary Condition
  {59396fc9-4437-4b7a-9227-289d3840df28}, !- Outside Boundary Condition Object
  NoSun,                                  !- Sun Exposure
  NoWind,                                 !- Wind Exposure
  ,                                       !- View Factor to Ground
  ,                                       !- Number of Vertices
  16.6053091109146, -2.8421709430404e-14, 4, !- X,Y,Z Vertex 1 {m}
  16.6053091109146, -2.8421709430404e-14, 0, !- X,Y,Z Vertex 2 {m}
  19.6053091109146, 2.99999999999997, 0,  !- X,Y,Z Vertex 3 {m}
  19.6053091109146, 2.99999999999997, 4;  !- X,Y,Z Vertex 4 {m}

OS:Surface,
  {9242b2ca-4f09-4f9e-acdf-c7cfe3cfee90}, !- Handle
  Surface 10,                             !- Name
  Wall,                                   !- Surface Type
  ,                                       !- Construction Name
  {5184d6a1-d9a0-4616-9eda-9a1418f2de79}, !- Space Name
  Surface,                                !- Outside Boundary Condition
  {91b689d3-a5b1-448c-98ff-2dd664152fa2}, !- Outside Boundary Condition Object
  NoSun,                                  !- Sun Exposure
  NoWind,                                 !- Wind Exposure
  ,                                       !- View Factor to Ground
  ,                                       !- Number of Vertices
  0, -2.8421709430404e-14, 4,             !- X,Y,Z Vertex 1 {m}
  0, -2.8421709430404e-14, 0,             !- X,Y,Z Vertex 2 {m}
  16.6053091109146, -2.8421709430404e-14, 0, !- X,Y,Z Vertex 3 {m}
  16.6053091109146, -2.8421709430404e-14, 4; !- X,Y,Z Vertex 4 {m}

OS:Surface,
  {5da8d281-01f9-40d7-add1-1ee108702cc6}, !- Handle
  Surface 11,                             !- Name
  Wall,                                   !- Surface Type
  ,                                       !- Construction Name
  {5184d6a1-d9a0-4616-9eda-9a1418f2de79}, !- Space Name
  Surface,                                !- Outside Boundary Condition
  {aefc0688-891a-4cb0-bf37-a5d729f34944}, !- Outside Boundary Condition Object
  NoSun,                                  !- Sun Exposure
  NoWind,                                 !- Wind Exposure
  ,                                       !- View Factor to Ground
  ,                                       !- Number of Vertices
  -3, 2.99999999999997, 4,                !- X,Y,Z Vertex 1 {m}
  -3, 2.99999999999997, 0,                !- X,Y,Z Vertex 2 {m}
  0, -2.8421709430404e-14, 0,             !- X,Y,Z Vertex 3 {m}
  0, -2.8421709430404e-14, 4;             !- X,Y,Z Vertex 4 {m}

OS:Surface,
  {f04ba5a5-8c6f-4fe0-8c02-d1457c4df2aa}, !- Handle
  Surface 12,                             !- Name
  RoofCeiling,                            !- Surface Type
  ,                                       !- Construction Name
  {5184d6a1-d9a0-4616-9eda-9a1418f2de79}, !- Space Name
  Outdoors,                               !- Outside Boundary Condition
  ,                                       !- Outside Boundary Condition Object
  SunExposed,                             !- Sun Exposure
  WindExposed,                            !- Wind Exposure
  ,                                       !- View Factor to Ground
  ,                                       !- Number of Vertices
  0, -2.8421709430404e-14, 4,             !- X,Y,Z Vertex 1 {m}
  16.6053091109146, -2.8421709430404e-14, 4, !- X,Y,Z Vertex 2 {m}
  19.6053091109146, 2.99999999999997, 4,  !- X,Y,Z Vertex 3 {m}
  -3, 2.99999999999997, 4;                !- X,Y,Z Vertex 4 {m}

OS:Space,
  {43ee24fd-5c94-4b70-982c-282e45292b0a}, !- Handle
  Story 1 East Perimeter Space,           !- Name
  ,                                       !- Space Type Name
  ,                                       !- Default Construction Set Name
  ,                                       !- Default Schedule Set Name
  -0,                                     !- Direction of Relative North {deg}
  19.6053091109146,                       !- X Origin {m}
  3,                                      !- Y Origin {m}
  0,                                      !- Z Origin {m}
  {5a2c5c4b-3c33-4cb3-ac14-7549d2c6ca9f}, !- Building Story Name
  {5a100544-f15c-4f38-b9cd-826fdbe9dd6d}; !- Thermal Zone Name

OS:Surface,
  {2fd0cc5a-9fb7-4f76-8072-683bca7809c9}, !- Handle
  Surface 13,                             !- Name
  Floor,                                  !- Surface Type
  ,                                       !- Construction Name
  {43ee24fd-5c94-4b70-982c-282e45292b0a}, !- Space Name
  Ground,                                 !- Outside Boundary Condition
  ,                                       !- Outside Boundary Condition Object
  NoSun,                                  !- Sun Exposure
  NoWind,                                 !- Wind Exposure
  ,                                       !- View Factor to Ground
  ,                                       !- Number of Vertices
  2.99999999999997, 19.6053091109146, 0,  !- X,Y,Z Vertex 1 {m}
  2.99999999999997, -3, 0,                !- X,Y,Z Vertex 2 {m}
  -2.8421709430404e-14, 0, 0,             !- X,Y,Z Vertex 3 {m}
  -2.8421709430404e-14, 16.6053091109146, 0; !- X,Y,Z Vertex 4 {m}

OS:Surface,
  {b405de32-4355-4ec6-a22d-22947068497f}, !- Handle
  Surface 14,                             !- Name
  Wall,                                   !- Surface Type
  ,                                       !- Construction Name
  {43ee24fd-5c94-4b70-982c-282e45292b0a}, !- Space Name
  Outdoors,                               !- Outside Boundary Condition
  ,                                       !- Outside Boundary Condition Object
  SunExposed,                             !- Sun Exposure
  WindExposed,                            !- Wind Exposure
  ,                                       !- View Factor to Ground
  ,                                       !- Number of Vertices
  2.99999999999997, -3, 4,                !- X,Y,Z Vertex 1 {m}
  2.99999999999997, -3, 0,                !- X,Y,Z Vertex 2 {m}
  2.99999999999997, 19.6053091109146, 0,  !- X,Y,Z Vertex 3 {m}
  2.99999999999997, 19.6053091109146, 4;  !- X,Y,Z Vertex 4 {m}

OS:Surface,
  {75524557-1b66-49c7-9e36-f6e2e1a34e14}, !- Handle
  Surface 15,                             !- Name
  Wall,                                   !- Surface Type
  ,                                       !- Construction Name
  {43ee24fd-5c94-4b70-982c-282e45292b0a}, !- Space Name
  Surface,                                !- Outside Boundary Condition
  {188e01cc-901a-4f36-af9b-b4318920301e}, !- Outside Boundary Condition Object
  NoSun,                                  !- Sun Exposure
  NoWind,                                 !- Wind Exposure
  ,                                       !- View Factor to Ground
  ,                                       !- Number of Vertices
  -2.8421709430404e-14, 0, 4,             !- X,Y,Z Vertex 1 {m}
  -2.8421709430404e-14, 0, 0,             !- X,Y,Z Vertex 2 {m}
  2.99999999999997, -3, 0,                !- X,Y,Z Vertex 3 {m}
  2.99999999999997, -3, 4;                !- X,Y,Z Vertex 4 {m}

OS:Surface,
  {065c45cf-3b26-4d4d-a421-8f401aaa108f}, !- Handle
  Surface 16,                             !- Name
  Wall,                                   !- Surface Type
  ,                                       !- Construction Name
  {43ee24fd-5c94-4b70-982c-282e45292b0a}, !- Space Name
  Surface,                                !- Outside Boundary Condition
  {b189d826-f64d-4291-a9e4-0cf08956023f}, !- Outside Boundary Condition Object
  NoSun,                                  !- Sun Exposure
  NoWind,                                 !- Wind Exposure
  ,                                       !- View Factor to Ground
  ,                                       !- Number of Vertices
  -2.8421709430404e-14, 16.6053091109146, 4, !- X,Y,Z Vertex 1 {m}
  -2.8421709430404e-14, 16.6053091109146, 0, !- X,Y,Z Vertex 2 {m}
  -2.8421709430404e-14, 0, 0,             !- X,Y,Z Vertex 3 {m}
  -2.8421709430404e-14, 0, 4;             !- X,Y,Z Vertex 4 {m}

OS:Surface,
  {59396fc9-4437-4b7a-9227-289d3840df28}, !- Handle
  Surface 17,                             !- Name
  Wall,                                   !- Surface Type
  ,                                       !- Construction Name
  {43ee24fd-5c94-4b70-982c-282e45292b0a}, !- Space Name
  Surface,                                !- Outside Boundary Condition
  {5453b5ff-5fca-408a-911a-bab04407d416}, !- Outside Boundary Condition Object
  NoSun,                                  !- Sun Exposure
  NoWind,                                 !- Wind Exposure
  ,                                       !- View Factor to Ground
  ,                                       !- Number of Vertices
  2.99999999999997, 19.6053091109146, 4,  !- X,Y,Z Vertex 1 {m}
  2.99999999999997, 19.6053091109146, 0,  !- X,Y,Z Vertex 2 {m}
  -2.8421709430404e-14, 16.6053091109146, 0, !- X,Y,Z Vertex 3 {m}
  -2.8421709430404e-14, 16.6053091109146, 4; !- X,Y,Z Vertex 4 {m}

OS:Surface,
  {ed3155d4-aaa9-4bc6-abd1-3cfc3aff062f}, !- Handle
  Surface 18,                             !- Name
  RoofCeiling,                            !- Surface Type
  ,                                       !- Construction Name
  {43ee24fd-5c94-4b70-982c-282e45292b0a}, !- Space Name
  Outdoors,                               !- Outside Boundary Condition
  ,                                       !- Outside Boundary Condition Object
  SunExposed,                             !- Sun Exposure
  WindExposed,                            !- Wind Exposure
  ,                                       !- View Factor to Ground
  ,                                       !- Number of Vertices
  -2.8421709430404e-14, 16.6053091109146, 4, !- X,Y,Z Vertex 1 {m}
  -2.8421709430404e-14, 0, 4,             !- X,Y,Z Vertex 2 {m}
  2.99999999999997, -3, 4,                !- X,Y,Z Vertex 3 {m}
  2.99999999999997, 19.6053091109146, 4;  !- X,Y,Z Vertex 4 {m}

OS:Space,
  {c647fd9b-87ca-48b9-a307-cd827013be74}, !- Handle
  Story 1 South Perimeter Space,          !- Name
  ,                                       !- Space Type Name
  ,                                       !- Default Construction Set Name
  ,                                       !- Default Schedule Set Name
  -0,                                     !- Direction of Relative North {deg}
  0,                                      !- X Origin {m}
  0,                                      !- Y Origin {m}
  0,                                      !- Z Origin {m}
  {5a2c5c4b-3c33-4cb3-ac14-7549d2c6ca9f}, !- Building Story Name
  {d1e6ea12-e4a9-422d-b664-1a1d69efd389}; !- Thermal Zone Name

OS:Surface,
  {2237db90-cb8a-4423-8f08-205607627a20}, !- Handle
  Surface 19,                             !- Name
  Floor,                                  !- Surface Type
  ,                                       !- Construction Name
  {c647fd9b-87ca-48b9-a307-cd827013be74}, !- Space Name
  Ground,                                 !- Outside Boundary Condition
  ,                                       !- Outside Boundary Condition Object
  NoSun,                                  !- Sun Exposure
  NoWind,                                 !- Wind Exposure
  ,                                       !- View Factor to Ground
  ,                                       !- Number of Vertices
  22.6053091109146, 0, 0,                 !- X,Y,Z Vertex 1 {m}
  0, 0, 0,                                !- X,Y,Z Vertex 2 {m}
  3, 3, 0,                                !- X,Y,Z Vertex 3 {m}
  19.6053091109146, 3, 0;                 !- X,Y,Z Vertex 4 {m}

OS:Surface,
  {59593044-e1f1-43ea-9b88-6e93aa68c2a6}, !- Handle
  Surface 20,                             !- Name
  Wall,                                   !- Surface Type
  ,                                       !- Construction Name
  {c647fd9b-87ca-48b9-a307-cd827013be74}, !- Space Name
  Outdoors,                               !- Outside Boundary Condition
  ,                                       !- Outside Boundary Condition Object
  SunExposed,                             !- Sun Exposure
  WindExposed,                            !- Wind Exposure
  ,                                       !- View Factor to Ground
  ,                                       !- Number of Vertices
  0, 0, 4,                                !- X,Y,Z Vertex 1 {m}
  0, 0, 0,                                !- X,Y,Z Vertex 2 {m}
  22.6053091109146, 0, 0,                 !- X,Y,Z Vertex 3 {m}
  22.6053091109146, 0, 4;                 !- X,Y,Z Vertex 4 {m}

OS:Surface,
  {ac82ddfc-6a0c-445e-a82c-4f5dacd67962}, !- Handle
  Surface 21,                             !- Name
  Wall,                                   !- Surface Type
  ,                                       !- Construction Name
  {c647fd9b-87ca-48b9-a307-cd827013be74}, !- Space Name
  Surface,                                !- Outside Boundary Condition
  {2adb0a48-7e54-433f-9353-18772ac198cc}, !- Outside Boundary Condition Object
  NoSun,                                  !- Sun Exposure
  NoWind,                                 !- Wind Exposure
  ,                                       !- View Factor to Ground
  ,                                       !- Number of Vertices
  3, 3, 4,                                !- X,Y,Z Vertex 1 {m}
  3, 3, 0,                                !- X,Y,Z Vertex 2 {m}
  0, 0, 0,                                !- X,Y,Z Vertex 3 {m}
  0, 0, 4;                                !- X,Y,Z Vertex 4 {m}

OS:Surface,
  {32e8b0f0-69ff-48fb-80b9-d1ebe4c39a0b}, !- Handle
  Surface 22,                             !- Name
  Wall,                                   !- Surface Type
  ,                                       !- Construction Name
  {c647fd9b-87ca-48b9-a307-cd827013be74}, !- Space Name
  Surface,                                !- Outside Boundary Condition
  {11fdfd49-a4df-4591-9fe9-47a7933bdfa1}, !- Outside Boundary Condition Object
  NoSun,                                  !- Sun Exposure
  NoWind,                                 !- Wind Exposure
  ,                                       !- View Factor to Ground
  ,                                       !- Number of Vertices
  19.6053091109146, 3, 4,                 !- X,Y,Z Vertex 1 {m}
  19.6053091109146, 3, 0,                 !- X,Y,Z Vertex 2 {m}
  3, 3, 0,                                !- X,Y,Z Vertex 3 {m}
  3, 3, 4;                                !- X,Y,Z Vertex 4 {m}

OS:Surface,
  {188e01cc-901a-4f36-af9b-b4318920301e}, !- Handle
  Surface 23,                             !- Name
  Wall,                                   !- Surface Type
  ,                                       !- Construction Name
  {c647fd9b-87ca-48b9-a307-cd827013be74}, !- Space Name
  Surface,                                !- Outside Boundary Condition
  {75524557-1b66-49c7-9e36-f6e2e1a34e14}, !- Outside Boundary Condition Object
  NoSun,                                  !- Sun Exposure
  NoWind,                                 !- Wind Exposure
  ,                                       !- View Factor to Ground
  ,                                       !- Number of Vertices
  22.6053091109146, 0, 4,                 !- X,Y,Z Vertex 1 {m}
  22.6053091109146, 0, 0,                 !- X,Y,Z Vertex 2 {m}
  19.6053091109146, 3, 0,                 !- X,Y,Z Vertex 3 {m}
  19.6053091109146, 3, 4;                 !- X,Y,Z Vertex 4 {m}

OS:Surface,
  {9ef8fb01-852f-48e8-b1e1-b50d355d1083}, !- Handle
  Surface 24,                             !- Name
  RoofCeiling,                            !- Surface Type
  ,                                       !- Construction Name
  {c647fd9b-87ca-48b9-a307-cd827013be74}, !- Space Name
  Outdoors,                               !- Outside Boundary Condition
  ,                                       !- Outside Boundary Condition Object
  SunExposed,                             !- Sun Exposure
  WindExposed,                            !- Wind Exposure
  ,                                       !- View Factor to Ground
  ,                                       !- Number of Vertices
  19.6053091109146, 3, 4,                 !- X,Y,Z Vertex 1 {m}
  3, 3, 4,                                !- X,Y,Z Vertex 2 {m}
  0, 0, 4,                                !- X,Y,Z Vertex 3 {m}
  22.6053091109146, 0, 4;                 !- X,Y,Z Vertex 4 {m}

OS:Space,
  {687a48d0-79af-43c9-9874-ded5187f4046}, !- Handle
  Story 1 Core Space,                     !- Name
  ,                                       !- Space Type Name
  ,                                       !- Default Construction Set Name
  ,                                       !- Default Schedule Set Name
  -0,                                     !- Direction of Relative North {deg}
  3,                                      !- X Origin {m}
  3,                                      !- Y Origin {m}
  0,                                      !- Z Origin {m}
  {5a2c5c4b-3c33-4cb3-ac14-7549d2c6ca9f}, !- Building Story Name
  {d25e3bb1-3883-4440-bcf1-4fe440728fbf}; !- Thermal Zone Name

OS:Surface,
  {c4629a29-500a-4d36-beec-8f6d14db51a7}, !- Handle
  Surface 25,                             !- Name
  Floor,                                  !- Surface Type
  ,                                       !- Construction Name
  {687a48d0-79af-43c9-9874-ded5187f4046}, !- Space Name
  Ground,                                 !- Outside Boundary Condition
  ,                                       !- Outside Boundary Condition Object
  NoSun,                                  !- Sun Exposure
  NoWind,                                 !- Wind Exposure
  ,                                       !- View Factor to Ground
  ,                                       !- Number of Vertices
  0, 0, 0,                                !- X,Y,Z Vertex 1 {m}
  0, 16.6053091109146, 0,                 !- X,Y,Z Vertex 2 {m}
  16.6053091109146, 16.6053091109146, 0,  !- X,Y,Z Vertex 3 {m}
  16.6053091109146, 0, 0;                 !- X,Y,Z Vertex 4 {m}

OS:Surface,
  {b1bfd75a-65c6-4211-b152-f7cc059b8931}, !- Handle
  Surface 26,                             !- Name
  Wall,                                   !- Surface Type
  ,                                       !- Construction Name
  {687a48d0-79af-43c9-9874-ded5187f4046}, !- Space Name
  Surface,                                !- Outside Boundary Condition
  {855c46fb-3c5e-4168-957f-5882cb7c8068}, !- Outside Boundary Condition Object
  NoSun,                                  !- Sun Exposure
  NoWind,                                 !- Wind Exposure
  ,                                       !- View Factor to Ground
  ,                                       !- Number of Vertices
  0, 16.6053091109146, 4,                 !- X,Y,Z Vertex 1 {m}
  0, 16.6053091109146, 0,                 !- X,Y,Z Vertex 2 {m}
  0, 0, 0,                                !- X,Y,Z Vertex 3 {m}
  0, 0, 4;                                !- X,Y,Z Vertex 4 {m}

OS:Surface,
  {91b689d3-a5b1-448c-98ff-2dd664152fa2}, !- Handle
  Surface 27,                             !- Name
  Wall,                                   !- Surface Type
  ,                                       !- Construction Name
  {687a48d0-79af-43c9-9874-ded5187f4046}, !- Space Name
  Surface,                                !- Outside Boundary Condition
  {9242b2ca-4f09-4f9e-acdf-c7cfe3cfee90}, !- Outside Boundary Condition Object
  NoSun,                                  !- Sun Exposure
  NoWind,                                 !- Wind Exposure
  ,                                       !- View Factor to Ground
  ,                                       !- Number of Vertices
  16.6053091109146, 16.6053091109146, 4,  !- X,Y,Z Vertex 1 {m}
  16.6053091109146, 16.6053091109146, 0,  !- X,Y,Z Vertex 2 {m}
  0, 16.6053091109146, 0,                 !- X,Y,Z Vertex 3 {m}
  0, 16.6053091109146, 4;                 !- X,Y,Z Vertex 4 {m}

OS:Surface,
  {b189d826-f64d-4291-a9e4-0cf08956023f}, !- Handle
  Surface 28,                             !- Name
  Wall,                                   !- Surface Type
  ,                                       !- Construction Name