
OS:Version,
  {dfe8e6fe-c45a-4f44-a2be-3f846cb186d7}, !- Handle
  0.10.0;                                 !- Version Identifier

OS:BuildingStory,
  {1776536c-273d-4f8d-8482-3f87992296c0}, !- Handle
  Story 1,                                !- Name
  0,                                      !- Nominal Z Coordinate {m}
  4,                                      !- Nominal Floor to Floor Height {m}
  ,                                       !- Default Construction Set Name
  ,                                       !- Default Schedule Set Name
  ;                                       !- Group Rendering Name

OS:Space,
  {1d45262f-aea4-4502-b4b2-9a958a90a3f4}, !- Handle
  Story 1 West Perimeter Space,           !- Name
  ,                                       !- Space Type Name
  ,                                       !- Default Construction Set Name
  ,                                       !- Default Schedule Set Name
  -0,                                     !- Direction of Relative North {deg}
  0,                                      !- X Origin {m}
  0,                                      !- Y Origin {m}
  0,                                      !- Z Origin {m}
  {1776536c-273d-4f8d-8482-3f87992296c0}, !- Building Story Name
  {99bd5d12-4b97-42af-bc42-efcb9607455e}; !- Thermal Zone Name

OS:Surface,
  {f80d0f23-f1e7-426f-a640-bfc57027ecdd}, !- Handle
  Surface 1,                              !- Name
  Floor,                                  !- Surface Type
  ,                                       !- Construction Name
  {1d45262f-aea4-4502-b4b2-9a958a90a3f4}, !- Space Name
  Ground,                                 !- Outside Boundary Condition
  ,                                       !- Outside Boundary Condition Object
  NoSun,                                  !- Sun Exposure
  NoWind,                                 !- Wind Exposure
  ,                                       !- View Factor to Ground
  ,                                       !- Number of Vertices
  0, 0, 0,                                !- X,Y,Z Vertex 1 {m}
  0, 22.6053091109146, 0,                 !- X,Y,Z Vertex 2 {m}
  3, 19.6053091109146, 0,                 !- X,Y,Z Vertex 3 {m}
  3, 3, 0;                                !- X,Y,Z Vertex 4 {m}

OS:Surface,
  {2b0b9a1b-c051-40dc-9966-7ddb9d95bd29}, !- Handle
  Surface 2,                              !- Name
  Wall,                                   !- Surface Type
  ,                                       !- Construction Name
  {1d45262f-aea4-4502-b4b2-9a958a90a3f4}, !- Space Name
  Outdoors,                               !- Outside Boundary Condition
  ,                                       !- Outside Boundary Condition Object
  SunExposed,                             !- Sun Exposure
  WindExposed,                            !- Wind Exposure
  ,                                       !- View Factor to Ground
  ,                                       !- Number of Vertices
  0, 22.6053091109146, 4,                 !- X,Y,Z Vertex 1 {m}
  0, 22.6053091109146, 0,                 !- X,Y,Z Vertex 2 {m}
  0, 0, 0,                                !- X,Y,Z Vertex 3 {m}
  0, 0, 4;                                !- X,Y,Z Vertex 4 {m}

OS:Surface,
  {d44162cb-881e-44cf-a2cd-4e3fbbec4df2}, !- Handle
  Surface 3,                              !- Name
  Wall,                                   !- Surface Type
  ,                                       !- Construction Name
  {1d45262f-aea4-4502-b4b2-9a958a90a3f4}, !- Space Name
  Surface,                                !- Outside Boundary Condition
  {40c566f0-00a3-4eb9-b022-a2390aa58e40}, !- Outside Boundary Condition Object
  NoSun,                                  !- Sun Exposure
  NoWind,                                 !- Wind Exposure
  ,                                       !- View Factor to Ground
  ,                                       !- Number of Vertices
  3, 19.6053091109146, 4,                 !- X,Y,Z Vertex 1 {m}
  3, 19.6053091109146, 0,                 !- X,Y,Z Vertex 2 {m}
  0, 22.6053091109146, 0,                 !- X,Y,Z Vertex 3 {m}
  0, 22.6053091109146, 4;                 !- X,Y,Z Vertex 4 {m}

OS:Surface,
  {3ada65b3-e958-4236-a939-68e717101825}, !- Handle
  Surface 4,                              !- Name
  Wall,                                   !- Surface Type
  ,                                       !- Construction Name
  {1d45262f-aea4-4502-b4b2-9a958a90a3f4}, !- Space Name
  Surface,                                !- Outside Boundary Condition
  {3b3a5fb4-b810-4012-a838-6281c4483150}, !- Outside Boundary Condition Object
  NoSun,                                  !- Sun Exposure
  NoWind,                                 !- Wind Exposure
  ,                                       !- View Factor to Ground
  ,                                       !- Number of Vertices
  3, 3, 4,                                !- X,Y,Z Vertex 1 {m}
  3, 3, 0,                                !- X,Y,Z Vertex 2 {m}
  3, 19.6053091109146, 0,                 !- X,Y,Z Vertex 3 {m}
  3, 19.6053091109146, 4;                 !- X,Y,Z Vertex 4 {m}

OS:Surface,
  {c571be39-a448-4410-9c42-c9e5ef6df2f1}, !- Handle
  Surface 5,                              !- Name
  Wall,                                   !- Surface Type
  ,                                       !- Construction Name
  {1d45262f-aea4-4502-b4b2-9a958a90a3f4}, !- Space Name
  Surface,                                !- Outside Boundary Condition
  {0c8f9f8e-2bd7-47de-af85-eb88aa0c5835}, !- Outside Boundary Condition Object
  NoSun,                                  !- Sun Exposure
  NoWind,                                 !- Wind Exposure
  ,                                       !- View Factor to Ground
  ,                                       !- Number of Vertices
  0, 0, 4,                                !- X,Y,Z Vertex 1 {m}
  0, 0, 0,                                !- X,Y,Z Vertex 2 {m}
  3, 3, 0,                                !- X,Y,Z Vertex 3 {m}
  3, 3, 4;                                !- X,Y,Z Vertex 4 {m}

OS:Surface,
  {b6db64b3-125c-4cbb-8155-a0d58f96aa48}, !- Handle
  Surface 6,                              !- Name
  RoofCeiling,                            !- Surface Type
  ,                                       !- Construction Name
  {1d45262f-aea4-4502-b4b2-9a958a90a3f4}, !- Space Name
  Outdoors,                               !- Outside Boundary Condition
  ,                                       !- Outside Boundary Condition Object
  SunExposed,                             !- Sun Exposure
  WindExposed,                            !- Wind Exposure
  ,                                       !- View Factor to Ground
  ,                                       !- Number of Vertices
  3, 3, 4,                                !- X,Y,Z Vertex 1 {m}
  3, 19.6053091109146, 4,                 !- X,Y,Z Vertex 2 {m}
  0, 22.6053091109146, 4,                 !- X,Y,Z Vertex 3 {m}
  0, 0, 4;                                !- X,Y,Z Vertex 4 {m}

OS:Space,
  {215cd315-4eda-487b-ba95-b64a95e85109}, !- Handle
  Story 1 North Perimeter Space,          !- Name
  ,                                       !- Space Type Name
  ,                                       !- Default Construction Set Name
  ,                                       !- Default Schedule Set Name
  -0,                                     !- Direction of Relative North {deg}
  3,                                      !- X Origin {m}
  19.6053091109146,                       !- Y Origin {m}
  0,                                      !- Z Origin {m}
  {1776536c-273d-4f8d-8482-3f87992296c0}, !- Building Story Name
  {7f77b825-e914-4fb3-9fc2-26f3d162c0b2}; !- Thermal Zone Name

OS:Surface,
  {1520e579-c1af-496c-b39c-3180d5defaf1}, !- Handle
  Surface 7,                              !- Name
  Floor,                                  !- Surface Type
  ,                                       !- Construction Name
  {215cd315-4eda-487b-ba95-b64a95e85109}, !- Space Name
  Ground,                                 !- Outside Boundary Condition
  ,                                       !- Outside Boundary Condition Object
  NoSun,                                  !- Sun Exposure
  NoWind,                                 !- Wind Exposure
  ,                                       !- View Factor to Ground
  ,                                       !- Number of Vertices
  -3, 2.99999999999997, 0,                !- X,Y,Z Vertex 1 {m}
  19.6053091109146, 2.99999999999997, 0,  !- X,Y,Z Vertex 2 {m}
  16.6053091109146, -2.8421709430404e-14, 0, !- X,Y,Z Vertex 3 {m}
  0, -2.8421709430404e-14, 0;             !- X,Y,Z Vertex 4 {m}

OS:Surface,
  {19c73d74-51ca-46e0-93a4-d40b83dafa66}, !- Handle
  Surface 8,                              !- Name
  Wall,                                   !- Surface Type
  ,                                       !- Construction Name
  {215cd315-4eda-487b-ba95-b64a95e85109}, !- Space Name
  Outdoors,                               !- Outside Boundary Condition
  ,                                       !- Outside Boundary Condition Object
  SunExposed,                             !- Sun Exposure
  WindExposed,                            !- Wind Exposure
  ,                                       !- View Factor to Ground
  ,                                       !- Number of Vertices
  19.6053091109146, 2.99999999999997, 4,  !- X,Y,Z Vertex 1 {m}
  19.6053091109146, 2.99999999999997, 0,  !- X,Y,Z Vertex 2 {m}
  -3, 2.99999999999997, 0,                !- X,Y,Z Vertex 3 {m}
  -3, 2.99999999999997, 4;                !- X,Y,Z Vertex 4 {m}

OS:Surface,
  {a3437987-de6e-4416-b85d-69e5c810cef2}, !- Handle
  Surface 9,                              !- Name
  Wall,                                   !- Surface Type
  ,                                       !- Construction Name
  {215cd315-4eda-487b-ba95-b64a95e85109}, !- Space Name
  Surface,                                !- Outside Boundary Condition
  {f6f02b21-772b-487f-a9f0-ace94255e1da}, !- Outside Boundary Condition Object
  NoSun,                                  !- Sun Exposure
  NoWind,                                 !- Wind Exposure
  ,                                       !- View Factor to Ground
  ,                                       !- Number of Vertices
  16.6053091109146, -2.8421709430404e-14, 4, !- X,Y,Z Vertex 1 {m}
  16.6053091109146, -2.8421709430404e-14, 0, !- X,Y,Z Vertex 2 {m}
  19.6053091109146, 2.99999999999997, 0,  !- X,Y,Z Vertex 3 {m}
  19.6053091109146, 2.99999999999997, 4;  !- X,Y,Z Vertex 4 {m}

OS:Surface,
  {b16d0575-1ef4-4082-aee0-a106ce83e5da}, !- Handle
  Surface 10,                             !- Name
  Wall,                                   !- Surface Type
  ,                                       !- Construction Name
  {215cd315-4eda-487b-ba95-b64a95e85109}, !- Space Name
  Surface,                                !- Outside Boundary Condition
  {56fda51a-3169-4f8e-ab3c-16636cd82c0a}, !- Outside Boundary Condition Object
  NoSun,                                  !- Sun Exposure
  NoWind,                                 !- Wind Exposure
  ,                                       !- View Factor to Ground
  ,                                       !- Number of Vertices
  0, -2.8421709430404e-14, 4,             !- X,Y,Z Vertex 1 {m}
  0, -2.8421709430404e-14, 0,             !- X,Y,Z Vertex 2 {m}
  16.6053091109146, -2.8421709430404e-14, 0, !- X,Y,Z Vertex 3 {m}
  16.6053091109146, -2.8421709430404e-14, 4; !- X,Y,Z Vertex 4 {m}

OS:Surface,
  {40c566f0-00a3-4eb9-b022-a2390aa58e40}, !- Handle
  Surface 11,                             !- Name
  Wall,                                   !- Surface Type
  ,                                       !- Construction Name
  {215cd315-4eda-487b-ba95-b64a95e85109}, !- Space Name
  Surface,                                !- Outside Boundary Condition
  {d44162cb-881e-44cf-a2cd-4e3fbbec4df2}, !- Outside Boundary Condition Object
  NoSun,                                  !- Sun Exposure
  NoWind,                                 !- Wind Exposure
  ,                                       !- View Factor to Ground
  ,                                       !- Number of Vertices
  -3, 2.99999999999997, 4,                !- X,Y,Z Vertex 1 {m}
  -3, 2.99999999999997, 0,                !- X,Y,Z Vertex 2 {m}
  0, -2.8421709430404e-14, 0,             !- X,Y,Z Vertex 3 {m}
  0, -2.8421709430404e-14, 4;             !- X,Y,Z Vertex 4 {m}

OS:Surface,
  {589628d9-2326-4bbc-8bba-3eb3c9c880a2}, !- Handle
  Surface 12,                             !- Name
  RoofCeiling,                            !- Surface Type
  ,                                       !- Construction Name
  {215cd315-4eda-487b-ba95-b64a95e85109}, !- Space Name
  Outdoors,                               !- Outside Boundary Condition
  ,                                       !- Outside Boundary Condition Object
  SunExposed,                             !- Sun Exposure
  WindExposed,                            !- Wind Exposure
  ,                                       !- View Factor to Ground
  ,                                       !- Number of Vertices
  0, -2.8421709430404e-14, 4,             !- X,Y,Z Vertex 1 {m}
  16.6053091109146, -2.8421709430404e-14, 4, !- X,Y,Z Vertex 2 {m}
  19.6053091109146, 2.99999999999997, 4,  !- X,Y,Z Vertex 3 {m}
  -3, 2.99999999999997, 4;                !- X,Y,Z Vertex 4 {m}

OS:Space,
  {39b28146-42a0-49dc-8ac4-506bb53dda6e}, !- Handle
  Story 1 East Perimeter Space,           !- Name
  ,                                       !- Space Type Name
  ,                                       !- Default Construction Set Name
  ,                                       !- Default Schedule Set Name
  -0,                                     !- Direction of Relative North {deg}
  19.6053091109146,                       !- X Origin {m}
  3,                                      !- Y Origin {m}
  0,                                      !- Z Origin {m}
  {1776536c-273d-4f8d-8482-3f87992296c0}, !- Building Story Name
  {bda34a11-e4e3-4915-9f14-0a5145b7090b}; !- Thermal Zone Name

OS:Surface,
  {8d469857-fe3a-47db-8142-d4ef0940a3b0}, !- Handle
  Surface 13,                             !- Name
  Floor,                                  !- Surface Type
  ,                                       !- Construction Name
  {39b28146-42a0-49dc-8ac4-506bb53dda6e}, !- Space Name
  Ground,                                 !- Outside Boundary Condition
  ,                                       !- Outside Boundary Condition Object
  NoSun,                                  !- Sun Exposure
  NoWind,                                 !- Wind Exposure
  ,                                       !- View Factor to Ground
  ,                                       !- Number of Vertices
  2.99999999999997, 19.6053091109146, 0,  !- X,Y,Z Vertex 1 {m}
  2.99999999999997, -3, 0,                !- X,Y,Z Vertex 2 {m}
  -2.8421709430404e-14, 0, 0,             !- X,Y,Z Vertex 3 {m}
  -2.8421709430404e-14, 16.6053091109146, 0; !- X,Y,Z Vertex 4 {m}

OS:Surface,
  {4d2feb45-cdaa-4f55-a94a-63dbfabfc722}, !- Handle
  Surface 14,                             !- Name
  Wall,                                   !- Surface Type
  ,                                       !- Construction Name
  {39b28146-42a0-49dc-8ac4-506bb53dda6e}, !- Space Name
  Outdoors,                               !- Outside Boundary Condition
  ,                                       !- Outside Boundary Condition Object
  SunExposed,                             !- Sun Exposure
  WindExposed,                            !- Wind Exposure
  ,                                       !- View Factor to Ground
  ,                                       !- Number of Vertices
  2.99999999999997, -3, 4,                !- X,Y,Z Vertex 1 {m}
  2.99999999999997, -3, 0,                !- X,Y,Z Vertex 2 {m}
  2.99999999999997, 19.6053091109146, 0,  !- X,Y,Z Vertex 3 {m}
  2.99999999999997, 19.6053091109146, 4;  !- X,Y,Z Vertex 4 {m}

OS:Surface,
  {13c76da7-37cb-4c35-a3de-6bc4dfb16c0a}, !- Handle
  Surface 15,                             !- Name
  Wall,                                   !- Surface Type
  ,                                       !- Construction Name
  {39b28146-42a0-49dc-8ac4-506bb53dda6e}, !- Space Name
  Surface,                                !- Outside Boundary Condition
  {41a11313-1687-40a0-91c8-fa09d3b21c6d}, !- Outside Boundary Condition Object
  NoSun,                                  !- Sun Exposure
  NoWind,                                 !- Wind Exposure
  ,                                       !- View Factor to Ground
  ,                                       !- Number of Vertices
  -2.8421709430404e-14, 0, 4,             !- X,Y,Z Vertex 1 {m}
  -2.8421709430404e-14, 0, 0,             !- X,Y,Z Vertex 2 {m}
  2.99999999999997, -3, 0,                !- X,Y,Z Vertex 3 {m}
  2.99999999999997, -3, 4;                !- X,Y,Z Vertex 4 {m}

OS:Surface,
  {983715bc-6a60-4b47-83b5-db712b6f40f6}, !- Handle
  Surface 16,                             !- Name
  Wall,                                   !- Surface Type
  ,                                       !- Construction Name
  {39b28146-42a0-49dc-8ac4-506bb53dda6e}, !- Space Name
  Surface,                                !- Outside Boundary Condition
  {53a7e2a1-88da-4890-89ac-9ae7bef6966b}, !- Outside Boundary Condition Object
  NoSun,                                  !- Sun Exposure
  NoWind,                                 !- Wind Exposure
  ,                                       !- View Factor to Ground
  ,                                       !- Number of Vertices
  -2.8421709430404e-14, 16.6053091109146, 4, !- X,Y,Z Vertex 1 {m}
  -2.8421709430404e-14, 16.6053091109146, 0, !- X,Y,Z Vertex 2 {m}
  -2.8421709430404e-14, 0, 0,             !- X,Y,Z Vertex 3 {m}
  -2.8421709430404e-14, 0, 4;             !- X,Y,Z Vertex 4 {m}

OS:Surface,
  {f6f02b21-772b-487f-a9f0-ace94255e1da}, !- Handle
  Surface 17,                             !- Name
  Wall,                                   !- Surface Type
  ,                                       !- Construction Name
  {39b28146-42a0-49dc-8ac4-506bb53dda6e}, !- Space Name
  Surface,                                !- Outside Boundary Condition
  {a3437987-de6e-4416-b85d-69e5c810cef2}, !- Outside Boundary Condition Object
  NoSun,                                  !- Sun Exposure
  NoWind,                                 !- Wind Exposure
  ,                                       !- View Factor to Ground
  ,                                       !- Number of Vertices
  2.99999999999997, 19.6053091109146, 4,  !- X,Y,Z Vertex 1 {m}
  2.99999999999997, 19.6053091109146, 0,  !- X,Y,Z Vertex 2 {m}
  -2.8421709430404e-14, 16.6053091109146, 0, !- X,Y,Z Vertex 3 {m}
  -2.8421709430404e-14, 16.6053091109146, 4; !- X,Y,Z Vertex 4 {m}

OS:Surface,
  {55c5e580-74ac-4c7d-9c6d-f57a691bb56c}, !- Handle
  Surface 18,                             !- Name
  RoofCeiling,                            !- Surface Type
  ,                                       !- Construction Name
  {39b28146-42a0-49dc-8ac4-506bb53dda6e}, !- Space Name
  Outdoors,                               !- Outside Boundary Condition
  ,                                       !- Outside Boundary Condition Object
  SunExposed,                             !- Sun Exposure
  WindExposed,                            !- Wind Exposure
  ,                                       !- View Factor to Ground
  ,                                       !- Number of Vertices
  -2.8421709430404e-14, 16.6053091109146, 4, !- X,Y,Z Vertex 1 {m}
  -2.8421709430404e-14, 0, 4,             !- X,Y,Z Vertex 2 {m}
  2.99999999999997, -3, 4,                !- X,Y,Z Vertex 3 {m}
  2.99999999999997, 19.6053091109146, 4;  !- X,Y,Z Vertex 4 {m}

OS:Space,
  {8e89cb84-ac1b-4ec8-b52b-e0641fdc56fa}, !- Handle
  Story 1 South Perimeter Space,          !- Name
  ,                                       !- Space Type Name
  ,                                       !- Default Construction Set Name
  ,                                       !- Default Schedule Set Name
  -0,                                     !- Direction of Relative North {deg}
  0,                                      !- X Origin {m}
  0,                                      !- Y Origin {m}
  0,                                      !- Z Origin {m}
  {1776536c-273d-4f8d-8482-3f87992296c0}, !- Building Story Name
  {4ba95ed5-523f-4a73-adcf-2923bef45d54}; !- Thermal Zone Name

OS:Surface,
  {6e63f3a2-87a1-4f27-89a0-8a853a9fc38f}, !- Handle
  Surface 19,                             !- Name
  Floor,                                  !- Surface Type
  ,                                       !- Construction Name
  {8e89cb84-ac1b-4ec8-b52b-e0641fdc56fa}, !- Space Name
  Ground,                                 !- Outside Boundary Condition
  ,                                       !- Outside Boundary Condition Object
  NoSun,                                  !- Sun Exposure
  NoWind,                                 !- Wind Exposure
  ,                                       !- View Factor to Ground
  ,                                       !- Number of Vertices
  22.6053091109146, 0, 0,                 !- X,Y,Z Vertex 1 {m}
  0, 0, 0,                                !- X,Y,Z Vertex 2 {m}
  3, 3, 0,                                !- X,Y,Z Vertex 3 {m}
  19.6053091109146, 3, 0;                 !- X,Y,Z Vertex 4 {m}

OS:Surface,
  {af44bae2-d154-4bed-a6bc-16fa21bcf686}, !- Handle
  Surface 20,                             !- Name
  Wall,                                   !- Surface Type
  ,                                       !- Construction Name
  {8e89cb84-ac1b-4ec8-b52b-e0641fdc56fa}, !- Space Name
  Outdoors,                               !- Outside Boundary Condition
  ,                                       !- Outside Boundary Condition Object
  SunExposed,                             !- Sun Exposure
  WindExposed,                            !- Wind Exposure
  ,                                       !- View Factor to Ground
  ,                                       !- Number of Vertices
  0, 0, 4,                                !- X,Y,Z Vertex 1 {m}
  0, 0, 0,                                !- X,Y,Z Vertex 2 {m}
  22.6053091109146, 0, 0,                 !- X,Y,Z Vertex 3 {m}
  22.6053091109146, 0, 4;                 !- X,Y,Z Vertex 4 {m}

OS:Surface,
  {0c8f9f8e-2bd7-47de-af85-eb88aa0c5835}, !- Handle
  Surface 21,                             !- Name
  Wall,                                   !- Surface Type
  ,                                       !- Construction Name
  {8e89cb84-ac1b-4ec8-b52b-e0641fdc56fa}, !- Space Name
  Surface,                                !- Outside Boundary Condition
  {c571be39-a448-4410-9c42-c9e5ef6df2f1}, !- Outside Boundary Condition Object
  NoSun,                                  !- Sun Exposure
  NoWind,                                 !- Wind Exposure
  ,                                       !- View Factor to Ground
  ,                                       !- Number of Vertices
  3, 3, 4,                                !- X,Y,Z Vertex 1 {m}
  3, 3, 0,                                !- X,Y,Z Vertex 2 {m}
  0, 0, 0,                                !- X,Y,Z Vertex 3 {m}
  0, 0, 4;                                !- X,Y,Z Vertex 4 {m}

OS:Surface,
  {7f2eff4a-04ea-4053-bd02-9b5f40439f68}, !- Handle
  Surface 22,                             !- Name
  Wall,                                   !- Surface Type
  ,                                       !- Construction Name
  {8e89cb84-ac1b-4ec8-b52b-e0641fdc56fa}, !- Space Name
  Surface,                                !- Outside Boundary Condition
  {98bcd64b-0754-4e42-a88b-3b8eefa85807}, !- Outside Boundary Condition Object
  NoSun,                                  !- Sun Exposure
  NoWind,                                 !- Wind Exposure
  ,                                       !- View Factor to Ground
  ,                                       !- Number of Vertices
  19.6053091109146, 3, 4,                 !- X,Y,Z Vertex 1 {m}
  19.6053091109146, 3, 0,                 !- X,Y,Z Vertex 2 {m}
  3, 3, 0,                                !- X,Y,Z Vertex 3 {m}
  3, 3, 4;                                !- X,Y,Z Vertex 4 {m}

OS:Surface,
  {41a11313-1687-40a0-91c8-fa09d3b21c6d}, !- Handle
  Surface 23,                             !- Name
  Wall,                                   !- Surface Type
  ,                                       !- Construction Name
  {8e89cb84-ac1b-4ec8-b52b-e0641fdc56fa}, !- Space Name
  Surface,                                !- Outside Boundary Condition
  {13c76da7-37cb-4c35-a3de-6bc4dfb16c0a}, !- Outside Boundary Condition Object
  NoSun,                                  !- Sun Exposure
  NoWind,                                 !- Wind Exposure
  ,                                       !- View Factor to Ground
  ,                                       !- Number of Vertices
  22.6053091109146, 0, 4,                 !- X,Y,Z Vertex 1 {m}
  22.6053091109146, 0, 0,                 !- X,Y,Z Vertex 2 {m}
  19.6053091109146, 3, 0,                 !- X,Y,Z Vertex 3 {m}
  19.6053091109146, 3, 4;                 !- X,Y,Z Vertex 4 {m}

OS:Surface,
  {623ec818-c551-4499-9512-72424df62ab2}, !- Handle
  Surface 24,                             !- Name
  RoofCeiling,                            !- Surface Type
  ,                                       !- Construction Name
  {8e89cb84-ac1b-4ec8-b52b-e0641fdc56fa}, !- Space Name
  Outdoors,                               !- Outside Boundary Condition
  ,                                       !- Outside Boundary Condition Object
  SunExposed,                             !- Sun Exposure
  WindExposed,                            !- Wind Exposure
  ,                                       !- View Factor to Ground
  ,                                       !- Number of Vertices
  19.6053091109146, 3, 4,                 !- X,Y,Z Vertex 1 {m}
  3, 3, 4,                                !- X,Y,Z Vertex 2 {m}
  0, 0, 4,                                !- X,Y,Z Vertex 3 {m}
  22.6053091109146, 0, 4;                 !- X,Y,Z Vertex 4 {m}

OS:Space,
  {861e82ba-a2e9-42a1-8377-a7a1cad07bc6}, !- Handle
  Story 1 Core Space,                     !- Name
  ,                                       !- Space Type Name
  ,                                       !- Default Construction Set Name
  ,                                       !- Default Schedule Set Name
  -0,                                     !- Direction of Relative North {deg}
  3,                                      !- X Origin {m}
  3,                                      !- Y Origin {m}
  0,                                      !- Z Origin {m}
  {1776536c-273d-4f8d-8482-3f87992296c0}, !- Building Story Name
  {0a7595e0-0011-49c0-a4c5-3dc62facb260}; !- Thermal Zone Name

OS:Surface,
  {fe263c41-88ab-4c21-ae1e-85908f46507e}, !- Handle
  Surface 25,                             !- Name
  Floor,                                  !- Surface Type
  ,                                       !- Construction Name
  {861e82ba-a2e9-42a1-8377-a7a1cad07bc6}, !- Space Name
  Ground,                                 !- Outside Boundary Condition
  ,                                       !- Outside Boundary Condition Object
  NoSun,                                  !- Sun Exposure
  NoWind,                                 !- Wind Exposure
  ,                                       !- View Factor to Ground
  ,                                       !- Number of Vertices
  0, 0, 0,                                !- X,Y,Z Vertex 1 {m}
  0, 16.6053091109146, 0,                 !- X,Y,Z Vertex 2 {m}
  16.6053091109146, 16.6053091109146, 0,  !- X,Y,Z Vertex 3 {m}
  16.6053091109146, 0, 0;                 !- X,Y,Z Vertex 4 {m}

OS:Surface,
  {3b3a5fb4-b810-4012-a838-6281c4483150}, !- Handle
  Surface 26,                             !- Name
  Wall,                                   !- Surface Type
  ,                                       !- Construction Name
  {861e82ba-a2e9-42a1-8377-a7a1cad07bc6}, !- Space Name
  Surface,                                !- Outside Boundary Condition
  {3ada65b3-e958-4236-a939-68e717101825}, !- Outside Boundary Condition Object
  NoSun,                                  !- Sun Exposure
  NoWind,                                 !- Wind Exposure
  ,                                       !- View Factor to Ground
  ,                                       !- Number of Vertices
  0, 16.6053091109146, 4,                 !- X,Y,Z Vertex 1 {m}
  0, 16.6053091109146, 0,                 !- X,Y,Z Vertex 2 {m}
  0, 0, 0,                                !- X,Y,Z Vertex 3 {m}
  0, 0, 4;                                !- X,Y,Z Vertex 4 {m}

OS:Surface,
  {56fda51a-3169-4f8e-ab3c-16636cd82c0a}, !- Handle
  Surface 27,                             !- Name
  Wall,                                   !- Surface Type
  ,                                       !- Construction Name
  {861e82ba-a2e9-42a1-8377-a7a1cad07bc6}, !- Space Name
  Surface,                                !- Outside Boundary Condition
  {b16d0575-1ef4-4082-aee0-a106ce83e5da}, !- Outside Boundary Condition Object
  NoSun,                                  !- Sun Exposure
  NoWind,                                 !- Wind Exposure
  ,                                       !- View Factor to Ground
  ,                                       !- Number of Vertices
  16.6053091109146, 16.6053091109146, 4,  !- X,Y,Z Vertex 1 {m}
  16.6053091109146, 16.6053091109146, 0,  !- X,Y,Z Vertex 2 {m}
  0, 16.6053091109146, 0,                 !- X,Y,Z Vertex 3 {m}
  0, 16.6053091109146, 4;                 !- X,Y,Z Vertex 4 {m}

OS:Surface,
  {53a7e2a1-88da-4890-89ac-9ae7bef6966b}, !- Handle
  Surface 28,                             !- Name
  Wall,                                   !- Surface Type
  ,                                       !- Construction Name