
OS:Version,
  {aa2f8006-b725-403c-9eb8-019449fc46c1}, !- Handle
  0.10.0;                                 !- Version Identifier

OS:BuildingStory,
  {7c22d5f6-4ec6-42c0-8507-43267f4736d5}, !- Handle
  Story 1,                                !- Name
  0,                                      !- Nominal Z Coordinate {m}
  4,                                      !- Nominal Floor to Floor Height {m}
  ,                                       !- Default Construction Set Name
  ,                                       !- Default Schedule Set Name
  ;                                       !- Group Rendering Name

OS:Space,
  {3fd58c44-13f8-4014-9e63-775a60772431}, !- Handle
  Story 1 West Perimeter Space,           !- Name
  ,                                       !- Space Type Name
  ,                                       !- Default Construction Set Name
  ,                                       !- Default Schedule Set Name
  -0,                                     !- Direction of Relative North {deg}
  0,                                      !- X Origin {m}
  0,                                      !- Y Origin {m}
  0,                                      !- Z Origin {m}
  {7c22d5f6-4ec6-42c0-8507-43267f4736d5}, !- Building Story Name
  {3751edf4-4013-4ba2-8653-66b46dd176c2}; !- Thermal Zone Name

OS:Surface,
  {a4333700-2c44-466b-8386-769e16310ed8}, !- Handle
  Surface 1,                              !- Name
  Floor,                                  !- Surface Type
  ,                                       !- Construction Name
  {3fd58c44-13f8-4014-9e63-775a60772431}, !- Space Name
  Ground,                                 !- Outside Boundary Condition
  ,                                       !- Outside Boundary Condition Object
  NoSun,                                  !- Sun Exposure
  NoWind,                                 !- Wind Exposure
  ,                                       !- View Factor to Ground
  ,                                       !- Number of Vertices
  0, 0, 0,                                !- X,Y,Z Vertex 1 {m}
  0, 24.4744765010408, 0,                 !- X,Y,Z Vertex 2 {m}
  3, 21.4744765010408, 0,                 !- X,Y,Z Vertex 3 {m}
  3, 3, 0;                                !- X,Y,Z Vertex 4 {m}

OS:Surface,
  {96513cd6-6c88-4444-b8a3-5cd146691bff}, !- Handle
  Surface 2,                              !- Name
  Wall,                                   !- Surface Type
  ,                                       !- Construction Name
  {3fd58c44-13f8-4014-9e63-775a60772431}, !- Space Name
  Outdoors,                               !- Outside Boundary Condition
  ,                                       !- Outside Boundary Condition Object
  SunExposed,                             !- Sun Exposure
  WindExposed,                            !- Wind Exposure
  ,                                       !- View Factor to Ground
  ,                                       !- Number of Vertices
  0, 24.4744765010408, 4,                 !- X,Y,Z Vertex 1 {m}
  0, 24.4744765010408, 0,                 !- X,Y,Z Vertex 2 {m}
  0, 0, 0,                                !- X,Y,Z Vertex 3 {m}
  0, 0, 4;                                !- X,Y,Z Vertex 4 {m}

OS:Surface,
  {82b3a5d0-b6b5-4d69-a04a-2340fd7c7e13}, !- Handle
  Surface 3,                              !- Name
  Wall,                                   !- Surface Type
  ,                                       !- Construction Name
  {3fd58c44-13f8-4014-9e63-775a60772431}, !- Space Name
  Surface,                                !- Outside Boundary Condition
  {3abc9e1f-db5f-4daa-97dc-d44241d5625c}, !- Outside Boundary Condition Object
  NoSun,                                  !- Sun Exposure
  NoWind,                                 !- Wind Exposure
  ,                                       !- View Factor to Ground
  ,                                       !- Number of Vertices
  3, 21.4744765010408, 4,                 !- X,Y,Z Vertex 1 {m}
  3, 21.4744765010408, 0,                 !- X,Y,Z Vertex 2 {m}
  0, 24.4744765010408, 0,                 !- X,Y,Z Vertex 3 {m}
  0, 24.4744765010408, 4;                 !- X,Y,Z Vertex 4 {m}

OS:Surface,
  {d5a995a3-a7fb-442b-a6f5-5184009fa9f9}, !- Handle
  Surface 4,                              !- Name
  Wall,                                   !- Surface Type
  ,                                       !- Construction Name
  {3fd58c44-13f8-4014-9e63-775a60772431}, !- Space Name
  Surface,                                !- Outside Boundary Condition
  {73050d10-cc09-4980-baf9-810ce4329709}, !- Outside Boundary Condition Object
  NoSun,                                  !- Sun Exposure
  NoWind,                                 !- Wind Exposure
  ,                                       !- View Factor to Ground
  ,                                       !- Number of Vertices
  3, 3, 4,                                !- X,Y,Z Vertex 1 {m}
  3, 3, 0,                                !- X,Y,Z Vertex 2 {m}
  3, 21.4744765010408, 0,                 !- X,Y,Z Vertex 3 {m}
  3, 21.4744765010408, 4;                 !- X,Y,Z Vertex 4 {m}

OS:Surface,
  {c27ee6d2-7ba0-4786-b482-37e022b25414}, !- Handle
  Surface 5,                              !- Name
  Wall,                                   !- Surface Type
  ,                                       !- Construction Name
  {3fd58c44-13f8-4014-9e63-775a60772431}, !- Space Name
  Surface,                                !- Outside Boundary Condition
  {f963084d-48f1-455e-99ce-a50a774c3ea7}, !- Outside Boundary Condition Object
  NoSun,                                  !- Sun Exposure
  NoWind,                                 !- Wind Exposure
  ,                                       !- View Factor to Ground
  ,                                       !- Number of Vertices
  0, 0, 4,                                !- X,Y,Z Vertex 1 {m}
  0, 0, 0,                                !- X,Y,Z Vertex 2 {m}
  3, 3, 0,                                !- X,Y,Z Vertex 3 {m}
  3, 3, 4;                                !- X,Y,Z Vertex 4 {m}

OS:Surface,
  {d9a9e1fa-6916-455f-8013-9addf80d105e}, !- Handle
  Surface 6,                              !- Name
  RoofCeiling,                            !- Surface Type
  ,                                       !- Construction Name
  {3fd58c44-13f8-4014-9e63-775a60772431}, !- Space Name
  Outdoors,                               !- Outside Boundary Condition
  ,                                       !- Outside Boundary Condition Object
  SunExposed,                             !- Sun Exposure
  WindExposed,                            !- Wind Exposure
  ,                                       !- View Factor to Ground
  ,                                       !- Number of Vertices
  3, 3, 4,                                !- X,Y,Z Vertex 1 {m}
  3, 21.4744765010408, 4,                 !- X,Y,Z Vertex 2 {m}
  0, 24.4744765010408, 4,                 !- X,Y,Z Vertex 3 {m}
  0, 0, 4;                                !- X,Y,Z Vertex 4 {m}

OS:Space,
  {a6a95161-eefe-433a-8dcf-d5e606ce4156}, !- Handle
  Story 1 North Perimeter Space,          !- Name
  ,                                       !- Space Type Name
  ,                                       !- Default Construction Set Name
  ,                                       !- Default Schedule Set Name
  -0,                                     !- Direction of Relative North {deg}
  3,                                      !- X Origin {m}
  21.4744765010408,                       !- Y Origin {m}
  0,                                      !- Z Origin {m}
  {7c22d5f6-4ec6-42c0-8507-43267f4736d5}, !- Building Story Name
  {1a019fbe-42ef-4cae-9adc-e962e14f1e4d}; !- Thermal Zone Name

OS:Surface,
  {dbfa35e2-c94f-4f72-bd16-8a914ece8d42}, !- Handle
  Surface 7,                              !- Name
  Floor,                                  !- Surface Type
  ,                                       !- Construction Name
  {a6a95161-eefe-433a-8dcf-d5e606ce4156}, !- Space Name
  Ground,                                 !- Outside Boundary Condition
  ,                                       !- Outside Boundary Condition Object
  NoSun,                                  !- Sun Exposure
  NoWind,                                 !- Wind Exposure
  ,                                       !- View Factor to Ground
  ,                                       !- Number of Vertices
  -3, 2.99999999999997, 0,                !- X,Y,Z Vertex 1 {m}
  21.4744765010408, 2.99999999999997, 0,  !- X,Y,Z Vertex 2 {m}
  18.4744765010408, -3.19744231092045e-14, 0, !- X,Y,Z Vertex 3 {m}
  0, -3.19744231092045e-14, 0;            !- X,Y,Z Vertex 4 {m}

OS:Surface,
  {37334b49-e2ff-4f18-981a-699973370bcb}, !- Handle
  Surface 8,                              !- Name
  Wall,                                   !- Surface Type
  ,                                       !- Construction Name
  {a6a95161-eefe-433a-8dcf-d5e606ce4156}, !- Space Name
  Outdoors,                               !- Outside Boundary Condition
  ,                                       !- Outside Boundary Condition Object
  SunExposed,                             !- Sun Exposure
  WindExposed,                            !- Wind Exposure
  ,                                       !- View Factor to Ground
  ,                                       !- Number of Vertices
  21.4744765010408, 2.99999999999997, 4,  !- X,Y,Z Vertex 1 {m}
  21.4744765010408, 2.99999999999997, 0,  !- X,Y,Z Vertex 2 {m}
  -3, 2.99999999999997, 0,                !- X,Y,Z Vertex 3 {m}
  -3, 2.99999999999997, 4;                !- X,Y,Z Vertex 4 {m}

OS:Surface,
  {49c9d909-2e68-4b3d-a082-ec43da7b218d}, !- Handle
  Surface 9,                              !- Name
  Wall,                                   !- Surface Type
  ,                                       !- Construction Name
  {a6a95161-eefe-433a-8dcf-d5e606ce4156}, !- Space Name
  Surface,                                !- Outside Boundary Condition
  {add9abd7-663c-4fed-80a2-7068bb945d46}, !- Outside Boundary Condition Object
  NoSun,                                  !- Sun Exposure
  NoWind,                                 !- Wind Exposure
  ,                                       !- View Factor to Ground
  ,                                       !- Number of Vertices
  18.4744765010408, -3.19744231092045e-14, 4, !- X,Y,Z Vertex 1 {m}
  18.4744765010408, -3.19744231092045e-14, 0, !- X,Y,Z Vertex 2 {m}
  21.4744765010408, 2.99999999999997, 0,  !- X,Y,Z Vertex 3 {m}
  21.4744765010408, 2.99999999999997, 4;  !- X,Y,Z Vertex 4 {m}

OS:Surface,
  {a22e9051-8ac1-43ae-b8ef-562572482b54}, !- Handle
  Surface 10,                             !- Name
  Wall,                                   !- Surface Type
  ,                                       !- Construction Name
  {a6a95161-eefe-433a-8dcf-d5e606ce4156}, !- Space Name
  Surface,                                !- Outside Boundary Condition
  {43486b54-f9ab-480b-919e-4e147fbeb154}, !- Outside Boundary Condition Object
  NoSun,                                  !- Sun Exposure
  NoWind,                                 !- Wind Exposure
  ,                                       !- View Factor to Ground
  ,                                       !- Number of Vertices
  0, -3.19744231092045e-14, 4,            !- X,Y,Z Vertex 1 {m}
  0, -3.19744231092045e-14, 0,            !- X,Y,Z Vertex 2 {m}
  18.4744765010408, -3.19744231092045e-14, 0, !- X,Y,Z Vertex 3 {m}
  18.4744765010408, -3.19744231092045e-14, 4; !- X,Y,Z Vertex 4 {m}

OS:Surface,
  {3abc9e1f-db5f-4daa-97dc-d44241d5625c}, !- Handle
  Surface 11,                             !- Name
  Wall,                                   !- Surface Type
  ,                                       !- Construction Name
  {a6a95161-eefe-433a-8dcf-d5e606ce4156}, !- Space Name
  Surface,                                !- Outside Boundary Condition
  {82b3a5d0-b6b5-4d69-a04a-2340fd7c7e13}, !- Outside Boundary Condition Object
  NoSun,                                  !- Sun Exposure
  NoWind,                                 !- Wind Exposure
  ,                                       !- View Factor to Ground
  ,                                       !- Number of Vertices
  -3, 2.99999999999997, 4,                !- X,Y,Z Vertex 1 {m}
  -3, 2.99999999999997, 0,                !- X,Y,Z Vertex 2 {m}
  0, -3.19744231092045e-14, 0,            !- X,Y,Z Vertex 3 {m}
  0, -3.19744231092045e-14, 4;            !- X,Y,Z Vertex 4 {m}

OS:Surface,
  {46bc711a-9243-4eb5-a9f1-827117e5abfd}, !- Handle
  Surface 12,                             !- Name
  RoofCeiling,                            !- Surface Type
  ,                                       !- Construction Name
  {a6a95161-eefe-433a-8dcf-d5e606ce4156}, !- Space Name
  Outdoors,                               !- Outside Boundary Condition
  ,                                       !- Outside Boundary Condition Object
  SunExposed,                             !- Sun Exposure
  WindExposed,                            !- Wind Exposure
  ,                                       !- View Factor to Ground
  ,                                       !- Number of Vertices
  0, -3.19744231092045e-14, 4,            !- X,Y,Z Vertex 1 {m}
  18.4744765010408, -3.19744231092045e-14, 4, !- X,Y,Z Vertex 2 {m}
  21.4744765010408, 2.99999999999997, 4,  !- X,Y,Z Vertex 3 {m}
  -3, 2.99999999999997, 4;                !- X,Y,Z Vertex 4 {m}

OS:Space,
  {44718dd1-cad6-4957-bb4e-8e2b27691edd}, !- Handle
  Story 1 East Perimeter Space,           !- Name
  ,                                       !- Space Type Name
  ,                                       !- Default Construction Set Name
  ,                                       !- Default Schedule Set Name
  -0,                                     !- Direction of Relative North {deg}
  21.4744765010408,                       !- X Origin {m}
  3,                                      !- Y Origin {m}
  0,                                      !- Z Origin {m}
  {7c22d5f6-4ec6-42c0-8507-43267f4736d5}, !- Building Story Name
  {9e61b96e-cbbc-468a-bceb-580a7e9f7f1f}; !- Thermal Zone Name

OS:Surface,
  {40439aeb-e13f-48aa-ad47-f3ab841f29a0}, !- Handle
  Surface 13,                             !- Name
  Floor,                                  !- Surface Type
  ,                                       !- Construction Name
  {44718dd1-cad6-4957-bb4e-8e2b27691edd}, !- Space Name
  Ground,                                 !- Outside Boundary Condition
  ,                                       !- Outside Boundary Condition Object
  NoSun,                                  !- Sun Exposure
  NoWind,                                 !- Wind Exposure
  ,                                       !- View Factor to Ground
  ,                                       !- Number of Vertices
  2.99999999999997, 21.4744765010408, 0,  !- X,Y,Z Vertex 1 {m}
  2.99999999999997, -3, 0,                !- X,Y,Z Vertex 2 {m}
  -3.19744231092045e-14, 0, 0,            !- X,Y,Z Vertex 3 {m}
  -3.19744231092045e-14, 18.4744765010408, 0; !- X,Y,Z Vertex 4 {m}

OS:Surface,
  {46a8da69-9010-41d9-9480-95d73c3c7a1e}, !- Handle
  Surface 14,                             !- Name
  Wall,                                   !- Surface Type
  ,                                       !- Construction Name
  {44718dd1-cad6-4957-bb4e-8e2b27691edd}, !- Space Name
  Outdoors,                               !- Outside Boundary Condition
  ,                                       !- Outside Boundary Condition Object
  SunExposed,                             !- Sun Exposure
  WindExposed,                            !- Wind Exposure
  ,                                       !- View Factor to Ground
  ,                                       !- Number of Vertices
  2.99999999999997, -3, 4,                !- X,Y,Z Vertex 1 {m}
  2.99999999999997, -3, 0,                !- X,Y,Z Vertex 2 {m}
  2.99999999999997, 21.4744765010408, 0,  !- X,Y,Z Vertex 3 {m}
  2.99999999999997, 21.4744765010408, 4;  !- X,Y,Z Vertex 4 {m}

OS:Surface,
  {253bf425-1750-4025-81a9-6e8aec7efe41}, !- Handle
  Surface 15,                             !- Name
  Wall,                                   !- Surface Type
  ,                                       !- Construction Name
  {44718dd1-cad6-4957-bb4e-8e2b27691edd}, !- Space Name
  Surface,                                !- Outside Boundary Condition
  {2e0b4b4b-5517-442a-bf59-f04906c5ea83}, !- Outside Boundary Condition Object
  NoSun,                                  !- Sun Exposure
  NoWind,                                 !- Wind Exposure
  ,                                       !- View Factor to Ground
  ,                                       !- Number of Vertices
  -3.19744231092045e-14, 0, 4,            !- X,Y,Z Vertex 1 {m}
  -3.19744231092045e-14, 0, 0,            !- X,Y,Z Vertex 2 {m}
  2.99999999999997, -3, 0,                !- X,Y,Z Vertex 3 {m}
  2.99999999999997, -3, 4;                !- X,Y,Z Vertex 4 {m}

OS:Surface,
  {7365d3f5-30e9-4ddc-b975-9ea284a21147}, !- Handle
  Surface 16,                             !- Name
  Wall,                                   !- Surface Type
  ,                                       !- Construction Name
  {44718dd1-cad6-4957-bb4e-8e2b27691edd}, !- Space Name
  Surface,                                !- Outside Boundary Condition
  {ee7ac98d-76d5-48f4-945d-f67f677d563f}, !- Outside Boundary Condition Object
  NoSun,                                  !- Sun Exposure
  NoWind,                                 !- Wind Exposure
  ,                                       !- View Factor to Ground
  ,                                       !- Number of Vertices
  -3.19744231092045e-14, 18.4744765010408, 4, !- X,Y,Z Vertex 1 {m}
  -3.19744231092045e-14, 18.4744765010408, 0, !- X,Y,Z Vertex 2 {m}
  -3.19744231092045e-14, 0, 0,            !- X,Y,Z Vertex 3 {m}
  -3.19744231092045e-14, 0, 4;            !- X,Y,Z Vertex 4 {m}

OS:Surface,
  {add9abd7-663c-4fed-80a2-7068bb945d46}, !- Handle
  Surface 17,                             !- Name
  Wall,                                   !- Surface Type
  ,                                       !- Construction Name
  {44718dd1-cad6-4957-bb4e-8e2b27691edd}, !- Space Name
  Surface,                                !- Outside Boundary Condition
  {49c9d909-2e68-4b3d-a082-ec43da7b218d}, !- Outside Boundary Condition Object
  NoSun,                                  !- Sun Exposure
  NoWind,                                 !- Wind Exposure
  ,                                       !- View Factor to Ground
  ,                                       !- Number of Vertices
  2.99999999999997, 21.4744765010408, 4,  !- X,Y,Z Vertex 1 {m}
  2.99999999999997, 21.4744765010408, 0,  !- X,Y,Z Vertex 2 {m}
  -3.19744231092045e-14, 18.4744765010408, 0, !- X,Y,Z Vertex 3 {m}
  -3.19744231092045e-14, 18.4744765010408, 4; !- X,Y,Z Vertex 4 {m}

OS:Surface,
  {c22137ac-b2fb-4546-b917-b2a1ae1d6c3e}, !- Handle
  Surface 18,                             !- Name
  RoofCeiling,                            !- Surface Type
  ,                                       !- Construction Name
  {44718dd1-cad6-4957-bb4e-8e2b27691edd}, !- Space Name
  Outdoors,                               !- Outside Boundary Condition
  ,                                       !- Outside Boundary Condition Object
  SunExposed,                             !- Sun Exposure
  WindExposed,                            !- Wind Exposure
  ,                                       !- View Factor to Ground
  ,                                       !- Number of Vertices
  -3.19744231092045e-14, 18.4744765010408, 4, !- X,Y,Z Vertex 1 {m}
  -3.19744231092045e-14, 0, 4,            !- X,Y,Z Vertex 2 {m}
  2.99999999999997, -3, 4,                !- X,Y,Z Vertex 3 {m}
  2.99999999999997, 21.4744765010408, 4;  !- X,Y,Z Vertex 4 {m}

OS:Space,
  {31f8ed66-04aa-4c25-b044-4a93985ee864}, !- Handle
  Story 1 South Perimeter Space,          !- Name
  ,                                       !- Space Type Name
  ,                                       !- Default Construction Set Name
  ,                                       !- Default Schedule Set Name
  -0,                                     !- Direction of Relative North {deg}
  0,                                      !- X Origin {m}
  0,                                      !- Y Origin {m}
  0,                                      !- Z Origin {m}
  {7c22d5f6-4ec6-42c0-8507-43267f4736d5}, !- Building Story Name
  {c484ec0f-a46e-4620-9023-ad8e72a4bd73}; !- Thermal Zone Name

OS:Surface,
  {fd68ee15-240a-4dc8-94c8-e1f7d165eb4e}, !- Handle
  Surface 19,                             !- Name
  Floor,                                  !- Surface Type
  ,                                       !- Construction Name
  {31f8ed66-04aa-4c25-b044-4a93985ee864}, !- Space Name
  Ground,                                 !- Outside Boundary Condition
  ,                                       !- Outside Boundary Condition Object
  NoSun,                                  !- Sun Exposure
  NoWind,                                 !- Wind Exposure
  ,                                       !- View Factor to Ground
  ,                                       !- Number of Vertices
  24.4744765010408, 0, 0,                 !- X,Y,Z Vertex 1 {m}
  0, 0, 0,                                !- X,Y,Z Vertex 2 {m}
  3, 3, 0,                                !- X,Y,Z Vertex 3 {m}
  21.4744765010408, 3, 0;                 !- X,Y,Z Vertex 4 {m}

OS:Surface,
  {85c32921-2b85-4c07-8ae0-3fba8ffd807e}, !- Handle
  Surface 20,                             !- Name
  Wall,                                   !- Surface Type
  ,                                       !- Construction Name
  {31f8ed66-04aa-4c25-b044-4a93985ee864}, !- Space Name
  Outdoors,                               !- Outside Boundary Condition
  ,                                       !- Outside Boundary Condition Object
  SunExposed,                             !- Sun Exposure
  WindExposed,                            !- Wind Exposure
  ,                                       !- View Factor to Ground
  ,                                       !- Number of Vertices
  0, 0, 4,                                !- X,Y,Z Vertex 1 {m}
  0, 0, 0,                                !- X,Y,Z Vertex 2 {m}
  24.4744765010408, 0, 0,                 !- X,Y,Z Vertex 3 {m}
  24.4744765010408, 0, 4;                 !- X,Y,Z Vertex 4 {m}

OS:Surface,
  {f963084d-48f1-455e-99ce-a50a774c3ea7}, !- Handle
  Surface 21,                             !- Name
  Wall,                                   !- Surface Type
  ,                                       !- Construction Name
  {31f8ed66-04aa-4c25-b044-4a93985ee864}, !- Space Name
  Surface,                                !- Outside Boundary Condition
  {c27ee6d2-7ba0-4786-b482-37e022b25414}, !- Outside Boundary Condition Object
  NoSun,                                  !- Sun Exposure
  NoWind,                                 !- Wind Exposure
  ,                                       !- View Factor to Ground
  ,                                       !- Number of Vertices
  3, 3, 4,                                !- X,Y,Z Vertex 1 {m}
  3, 3, 0,                                !- X,Y,Z Vertex 2 {m}
  0, 0, 0,                                !- X,Y,Z Vertex 3 {m}
  0, 0, 4;                                !- X,Y,Z Vertex 4 {m}

OS:Surface,
  {7d5c48b5-2dc6-45ae-9752-6ce6eed4e1d3}, !- Handle
  Surface 22,                             !- Name
  Wall,                                   !- Surface Type
  ,                                       !- Construction Name
  {31f8ed66-04aa-4c25-b044-4a93985ee864}, !- Space Name
  Surface,                                !- Outside Boundary Condition
  {043f2451-8b7e-4039-9cbc-075ca1e4058e}, !- Outside Boundary Condition Object
  NoSun,                                  !- Sun Exposure
  NoWind,                                 !- Wind Exposure
  ,                                       !- View Factor to Ground
  ,                                       !- Number of Vertices
  21.4744765010408, 3, 4,                 !- X,Y,Z Vertex 1 {m}
  21.4744765010408, 3, 0,                 !- X,Y,Z Vertex 2 {m}
  3, 3, 0,                                !- X,Y,Z Vertex 3 {m}
  3, 3, 4;                                !- X,Y,Z Vertex 4 {m}

OS:Surface,
  {2e0b4b4b-5517-442a-bf59-f04906c5ea83}, !- Handle
  Surface 23,                             !- Name
  Wall,                                   !- Surface Type
  ,                                       !- Construction Name
  {31f8ed66-04aa-4c25-b044-4a93985ee864}, !- Space Name
  Surface,                                !- Outside Boundary Condition
  {253bf425-1750-4025-81a9-6e8aec7efe41}, !- Outside Boundary Condition Object
  NoSun,                                  !- Sun Exposure
  NoWind,                                 !- Wind Exposure
  ,                                       !- View Factor to Ground
  ,                                       !- Number of Vertices
  24.4744765010408, 0, 4,                 !- X,Y,Z Vertex 1 {m}
  24.4744765010408, 0, 0,                 !- X,Y,Z Vertex 2 {m}
  21.4744765010408, 3, 0,                 !- X,Y,Z Vertex 3 {m}
  21.4744765010408, 3, 4;                 !- X,Y,Z Vertex 4 {m}

OS:Surface,
  {e5746241-d831-4b5f-ae6e-b81b8afd5815}, !- Handle
  Surface 24,                             !- Name
  RoofCeiling,                            !- Surface Type
  ,                                       !- Construction Name
  {31f8ed66-04aa-4c25-b044-4a93985ee864}, !- Space Name
  Outdoors,                               !- Outside Boundary Condition
  ,                                       !- Outside Boundary Condition Object
  SunExposed,                             !- Sun Exposure
  WindExposed,                            !- Wind Exposure
  ,                                       !- View Factor to Ground
  ,                                       !- Number of Vertices
  21.4744765010408, 3, 4,                 !- X,Y,Z Vertex 1 {m}
  3, 3, 4,                                !- X,Y,Z Vertex 2 {m}
  0, 0, 4,                                !- X,Y,Z Vertex 3 {m}
  24.4744765010408, 0, 4;                 !- X,Y,Z Vertex 4 {m}

OS:Space,
  {e2780d8e-8cfd-45bf-bbe8-cf9ad1c2ce13}, !- Handle
  Story 1 Core Space,                     !- Name
  ,                                       !- Space Type Name
  ,                                       !- Default Construction Set Name
  ,                                       !- Default Schedule Set Name
  -0,                                     !- Direction of Relative North {deg}
  3,                                      !- X Origin {m}
  3,                                      !- Y Origin {m}
  0,                                      !- Z Origin {m}
  {7c22d5f6-4ec6-42c0-8507-43267f4736d5}, !- Building Story Name
  {fc6fcba8-0210-44a9-9db0-03f06a373dd3}; !- Thermal Zone Name

OS:Surface,
  {e6eb640a-34ac-4561-bab4-cf9bb26754bc}, !- Handle
  Surface 25,                             !- Name
  Floor,                                  !- Surface Type
  ,                                       !- Construction Name
  {e2780d8e-8cfd-45bf-bbe8-cf9ad1c2ce13}, !- Space Name
  Ground,                                 !- Outside Boundary Condition
  ,                                       !- Outside Boundary Condition Object
  NoSun,                                  !- Sun Exposure
  NoWind,                                 !- Wind Exposure
  ,                                       !- View Factor to Ground
  ,                                       !- Number of Vertices
  0, 0, 0,                                !- X,Y,Z Vertex 1 {m}
  0, 18.4744765010408, 0,                 !- X,Y,Z Vertex 2 {m}
  18.4744765010408, 18.4744765010408, 0,  !- X,Y,Z Vertex 3 {m}
  18.4744765010408, 0, 0;                 !- X,Y,Z Vertex 4 {m}

OS:Surface,
  {73050d10-cc09-4980-baf9-810ce4329709}, !- Handle
  Surface 26,                             !- Name
  Wall,                                   !- Surface Type
  ,                                       !- Construction Name
  {e2780d8e-8cfd-45bf-bbe8-cf9ad1c2ce13}, !- Space Name
  Surface,                                !- Outside Boundary Condition
  {d5a995a3-a7fb-442b-a6f5-5184009fa9f9}, !- Outside Boundary Condition Object
  NoSun,                                  !- Sun Exposure
  NoWind,                                 !- Wind Exposure
  ,                                       !- View Factor to Ground
  ,                                       !- Number of Vertices
  0, 18.4744765010408, 4,                 !- X,Y,Z Vertex 1 {m}
  0, 18.4744765010408, 0,                 !- X,Y,Z Vertex 2 {m}
  0, 0, 0,                                !- X,Y,Z Vertex 3 {m}
  0, 0, 4;                                !- X,Y,Z Vertex 4 {m}

OS:Surface,
  {43486b54-f9ab-480b-919e-4e147fbeb154}, !- Handle
  Surface 27,                             !- Name
  Wall,                                   !- Surface Type
  ,                                       !- Construction Name
  {e2780d8e-8cfd-45bf-bbe8-cf9ad1c2ce13}, !- Space Name
  Surface,                                !- Outside Boundary Condition
  {a22e9051-8ac1-43ae-b8ef-562572482b54}, !- Outside Boundary Condition Object
  NoSun,                                  !- Sun Exposure
  NoWind,                                 !- Wind Exposure
  ,                                       !- View Factor to Ground
  ,                                       !- Number of Vertices
  18.4744765010408, 18.4744765010408, 4,  !- X,Y,Z Vertex 1 {m}
  18.4744765010408, 18.4744765010408, 0,  !- X,Y,Z Vertex 2 {m}
  0, 18.4744765010408, 0,                 !- X,Y,Z Vertex 3 {m}
  0, 18.4744765010408, 4;                 !- X,Y,Z Vertex 4 {m}

OS:Surface,
  {ee7ac98d-76d5-48f4-945d-f67f677d563f}, !- Handle
  Surface 28,                             !- Name
  Wall,                                   !- Surface Type
  ,                                       !- Construction Name