
OS:Version,
  {1f46297a-5c67-415d-a741-b228d9e9a0e0}, !- Handle
  0.10.0;                                 !- Version Identifier

OS:BuildingStory,
  {863d5ae1-2892-405a-a72d-805638554f69}, !- Handle
  Story 1,                                !- Name
  0,                                      !- Nominal Z Coordinate {m}
  4,                                      !- Nominal Floor to Floor Height {m}
  ,                                       !- Default Construction Set Name
  ,                                       !- Default Schedule Set Name
  ;                                       !- Group Rendering Name

OS:Space,
  {9f3b7c2e-8346-4af2-86fc-5fe1bb86f91a}, !- Handle
  Story 1 West Perimeter Space,           !- Name
  ,                                       !- Space Type Name
  ,                                       !- Default Construction Set Name
  ,                                       !- Default Schedule Set Name
  -0,                                     !- Direction of Relative North {deg}
  0,                                      !- X Origin {m}
  0,                                      !- Y Origin {m}
  0,                                      !- Z Origin {m}
  {863d5ae1-2892-405a-a72d-805638554f69}, !- Building Story Name
  {1f9f35ca-a779-4dd8-9028-53354e1b4575}; !- Thermal Zone Name

OS:Surface,
  {3fd21795-25be-4c8d-a5b9-fca0761ed1f1}, !- Handle
  Surface 1,                              !- Name
  Floor,                                  !- Surface Type
  ,                                       !- Construction Name
  {9f3b7c2e-8346-4af2-86fc-5fe1bb86f91a}, !- Space Name
  Ground,                                 !- Outside Boundary Condition
  ,                                       !- Outside Boundary Condition Object
  NoSun,                                  !- Sun Exposure
  NoWind,                                 !- Wind Exposure
  ,                                       !- View Factor to Ground
  ,                                       !- Number of Vertices
  0, 0, 0,                                !- X,Y,Z Vertex 1 {m}
  0, 31.6196141658939, 0,                 !- X,Y,Z Vertex 2 {m}
  3, 28.6196141658939, 0,                 !- X,Y,Z Vertex 3 {m}
  3, 3, 0;                                !- X,Y,Z Vertex 4 {m}

OS:Surface,
  {a03816bd-4395-49cd-a5d3-317e3fc705ff}, !- Handle
  Surface 2,                              !- Name
  Wall,                                   !- Surface Type
  ,                                       !- Construction Name
  {9f3b7c2e-8346-4af2-86fc-5fe1bb86f91a}, !- Space Name
  Outdoors,                               !- Outside Boundary Condition
  ,                                       !- Outside Boundary Condition Object
  SunExposed,                             !- Sun Exposure
  WindExposed,                            !- Wind Exposure
  ,                                       !- View Factor to Ground
  ,                                       !- Number of Vertices
  0, 31.6196141658939, 4,                 !- X,Y,Z Vertex 1 {m}
  0, 31.6196141658939, 0,                 !- X,Y,Z Vertex 2 {m}
  0, 0, 0,                                !- X,Y,Z Vertex 3 {m}
  0, 0, 4;                                !- X,Y,Z Vertex 4 {m}

OS:Surface,
  {57d74503-eb59-4be3-aee9-2b9373146714}, !- Handle
  Surface 3,                              !- Name
  Wall,                                   !- Surface Type
  ,                                       !- Construction Name
  {9f3b7c2e-8346-4af2-86fc-5fe1bb86f91a}, !- Space Name
  Surface,                                !- Outside Boundary Condition
  {d03635ca-0bfd-4742-aff1-ea3993134172}, !- Outside Boundary Condition Object
  NoSun,                                  !- Sun Exposure
  NoWind,                                 !- Wind Exposure
  ,                                       !- View Factor to Ground
  ,                                       !- Number of Vertices
  3, 28.6196141658939, 4,                 !- X,Y,Z Vertex 1 {m}
  3, 28.6196141658939, 0,                 !- X,Y,Z Vertex 2 {m}
  0, 31.6196141658939, 0,                 !- X,Y,Z Vertex 3 {m}
  0, 31.6196141658939, 4;                 !- X,Y,Z Vertex 4 {m}

OS:Surface,
  {3e31d964-96f0-4d20-ac7d-c46ba4dbfcb4}, !- Handle
  Surface 4,                              !- Name
  Wall,                                   !- Surface Type
  ,                                       !- Construction Name
  {9f3b7c2e-8346-4af2-86fc-5fe1bb86f91a}, !- Space Name
  Surface,                                !- Outside Boundary Condition
  {54eb694d-fc88-493c-9f14-3326c6c81552}, !- Outside Boundary Condition Object
  NoSun,                                  !- Sun Exposure
  NoWind,                                 !- Wind Exposure
  ,                                       !- View Factor to Ground
  ,                                       !- Number of Vertices
  3, 3, 4,                                !- X,Y,Z Vertex 1 {m}
  3, 3, 0,                                !- X,Y,Z Vertex 2 {m}
  3, 28.6196141658939, 0,                 !- X,Y,Z Vertex 3 {m}
  3, 28.6196141658939, 4;                 !- X,Y,Z Vertex 4 {m}

OS:Surface,
  {8f36002c-80ac-4b8e-8d32-1a8ca03a029b}, !- Handle
  Surface 5,                              !- Name
  Wall,                                   !- Surface Type
  ,                                       !- Construction Name
  {9f3b7c2e-8346-4af2-86fc-5fe1bb86f91a}, !- Space Name
  Surface,                                !- Outside Boundary Condition
  {24af796b-fd13-4a78-88e0-a48e6a9f5b2b}, !- Outside Boundary Condition Object
  NoSun,                                  !- Sun Exposure
  NoWind,                                 !- Wind Exposure
  ,                                       !- View Factor to Ground
  ,                                       !- Number of Vertices
  0, 0, 4,                                !- X,Y,Z Vertex 1 {m}
  0, 0, 0,                                !- X,Y,Z Vertex 2 {m}
  3, 3, 0,                                !- X,Y,Z Vertex 3 {m}
  3, 3, 4;                                !- X,Y,Z Vertex 4 {m}

OS:Surface,
  {23b94e0b-6cb1-4318-b695-cf5e0da2cd23}, !- Handle
  Surface 6,                              !- Name
  RoofCeiling,                            !- Surface Type
  ,                                       !- Construction Name
  {9f3b7c2e-8346-4af2-86fc-5fe1bb86f91a}, !- Space Name
  Surface,                                !- Outside Boundary Condition
  {6c277280-5d45-48c7-b2a9-223de57f6efb}, !- Outside Boundary Condition Object
  NoSun,                                  !- Sun Exposure
  NoWind,                                 !- Wind Exposure
  ,                                       !- View Factor to Ground
  ,                                       !- Number of Vertices
  3, 3, 4,                                !- X,Y,Z Vertex 1 {m}
  3, 28.6196141658939, 4,                 !- X,Y,Z Vertex 2 {m}
  0, 31.6196141658939, 4,                 !- X,Y,Z Vertex 3 {m}
  0, 0, 4;                                !- X,Y,Z Vertex 4 {m}

OS:Space,
  {598b19cd-0add-4db4-90b1-cfa41365a922}, !- Handle
  Story 1 North Perimeter Space,          !- Name
  ,                                       !- Space Type Name
  ,                                       !- Default Construction Set Name
  ,                                       !- Default Schedule Set Name
  -0,                                     !- Direction of Relative North {deg}
  3,                                      !- X Origin {m}
  28.6196141658939,                       !- Y Origin {m}
  0,                                      !- Z Origin {m}
  {863d5ae1-2892-405a-a72d-805638554f69}, !- Building Story Name
  {52a25c4e-1d88-4435-966c-f6dc5f361c0a}; !- Thermal Zone Name

OS:Surface,
  {8079883f-7642-4269-9779-e81cfc55b3c4}, !- Handle
  Surface 7,                              !- Name
  Floor,                                  !- Surface Type
  ,                                       !- Construction Name
  {598b19cd-0add-4db4-90b1-cfa41365a922}, !- Space Name
  Ground,                                 !- Outside Boundary Condition
  ,                                       !- Outside Boundary Condition Object
  NoSun,                                  !- Sun Exposure
  NoWind,                                 !- Wind Exposure
  ,                                       !- View Factor to Ground
  ,                                       !- Number of Vertices
  -3, 2.99999999999997, 0,                !- X,Y,Z Vertex 1 {m}
  28.6196141658939, 2.99999999999997, 0,  !- X,Y,Z Vertex 2 {m}
  25.6196141658939, -2.8421709430404e-14, 0, !- X,Y,Z Vertex 3 {m}
  0, -2.8421709430404e-14, 0;             !- X,Y,Z Vertex 4 {m}

OS:Surface,
  {a52a940a-f00a-4122-a7e3-7e11505e7d42}, !- Handle
  Surface 8,                              !- Name
  Wall,                                   !- Surface Type
  ,                                       !- Construction Name
  {598b19cd-0add-4db4-90b1-cfa41365a922}, !- Space Name
  Outdoors,                               !- Outside Boundary Condition
  ,                                       !- Outside Boundary Condition Object
  SunExposed,                             !- Sun Exposure
  WindExposed,                            !- Wind Exposure
  ,                                       !- View Factor to Ground
  ,                                       !- Number of Vertices
  28.6196141658939, 2.99999999999997, 4,  !- X,Y,Z Vertex 1 {m}
  28.6196141658939, 2.99999999999997, 0,  !- X,Y,Z Vertex 2 {m}
  -3, 2.99999999999997, 0,                !- X,Y,Z Vertex 3 {m}
  -3, 2.99999999999997, 4;                !- X,Y,Z Vertex 4 {m}

OS:Surface,
  {a3d80ed3-3a34-4946-a0a4-395296c624a5}, !- Handle
  Surface 9,                              !- Name
  Wall,                                   !- Surface Type
  ,                                       !- Construction Name
  {598b19cd-0add-4db4-90b1-cfa41365a922}, !- Space Name
  Surface,                                !- Outside Boundary Condition
  {60723b1e-679e-4bf3-9469-20d80a71834a}, !- Outside Boundary Condition Object
  NoSun,                                  !- Sun Exposure
  NoWind,                                 !- Wind Exposure
  ,                                       !- View Factor to Ground
  ,                                       !- Number of Vertices
  25.6196141658939, -2.8421709430404e-14, 4, !- X,Y,Z Vertex 1 {m}
  25.6196141658939, -2.8421709430404e-14, 0, !- X,Y,Z Vertex 2 {m}
  28.6196141658939, 2.99999999999997, 0,  !- X,Y,Z Vertex 3 {m}
  28.6196141658939, 2.99999999999997, 4;  !- X,Y,Z Vertex 4 {m}

OS:Surface,
  {1d9a396d-153c-4a75-9c49-c90da500f280}, !- Handle
  Surface 10,                             !- Name
  Wall,                                   !- Surface Type
  ,                                       !- Construction Name
  {598b19cd-0add-4db4-90b1-cfa41365a922}, !- Space Name
  Surface,                                !- Outside Boundary Condition
  {3a5ceb8c-2039-4021-a35a-52446de5eeff}, !- Outside Boundary Condition Object
  NoSun,                                  !- Sun Exposure
  NoWind,                                 !- Wind Exposure
  ,                                       !- View Factor to Ground
  ,                                       !- Number of Vertices
  0, -2.8421709430404e-14, 4,             !- X,Y,Z Vertex 1 {m}
  0, -2.8421709430404e-14, 0,             !- X,Y,Z Vertex 2 {m}
  25.6196141658939, -2.8421709430404e-14, 0, !- X,Y,Z Vertex 3 {m}
  25.6196141658939, -2.8421709430404e-14, 4; !- X,Y,Z Vertex 4 {m}

OS:Surface,
  {d03635ca-0bfd-4742-aff1-ea3993134172}, !- Handle
  Surface 11,                             !- Name
  Wall,                                   !- Surface Type
  ,                                       !- Construction Name
  {598b19cd-0add-4db4-90b1-cfa41365a922}, !- Space Name
  Surface,                                !- Outside Boundary Condition
  {57d74503-eb59-4be3-aee9-2b9373146714}, !- Outside Boundary Condition Object
  NoSun,                                  !- Sun Exposure
  NoWind,                                 !- Wind Exposure
  ,                                       !- View Factor to Ground
  ,                                       !- Number of Vertices
  -3, 2.99999999999997, 4,                !- X,Y,Z Vertex 1 {m}
  -3, 2.99999999999997, 0,                !- X,Y,Z Vertex 2 {m}
  0, -2.8421709430404e-14, 0,             !- X,Y,Z Vertex 3 {m}
  0, -2.8421709430404e-14, 4;             !- X,Y,Z Vertex 4 {m}

OS:Surface,
  {ac84efc5-3518-4061-ad0e-dfa6bdf561f5}, !- Handle
  Surface 12,                             !- Name
  RoofCeiling,                            !- Surface Type
  ,                                       !- Construction Name
  {598b19cd-0add-4db4-90b1-cfa41365a922}, !- Space Name
  Surface,                                !- Outside Boundary Condition
  {d4e5abbf-4e35-4a7a-a187-e30d4ed4d77a}, !- Outside Boundary Condition Object
  NoSun,                                  !- Sun Exposure
  NoWind,                                 !- Wind Exposure
  ,                                       !- View Factor to Ground
  ,                                       !- Number of Vertices
  0, -2.8421709430404e-14, 4,             !- X,Y,Z Vertex 1 {m}
  25.6196141658939, -2.8421709430404e-14, 4, !- X,Y,Z Vertex 2 {m}
  28.6196141658939, 2.99999999999997, 4,  !- X,Y,Z Vertex 3 {m}
  -3, 2.99999999999997, 4;                !- X,Y,Z Vertex 4 {m}

OS:Space,
  {29bfb3d9-228e-423d-b111-f952219df0ff}, !- Handle
  Story 1 East Perimeter Space,           !- Name
  ,                                       !- Space Type Name
  ,                                       !- Default Construction Set Name
  ,                                       !- Default Schedule Set Name
  -0,                                     !- Direction of Relative North {deg}
  28.6196141658939,                       !- X Origin {m}
  3,                                      !- Y Origin {m}
  0,                                      !- Z Origin {m}
  {863d5ae1-2892-405a-a72d-805638554f69}, !- Building Story Name
  {44bb56e9-ccac-4a9b-9b39-7455aa8bd40a}; !- Thermal Zone Name

OS:Surface,
  {db2dcc33-7943-441e-91ef-d290384b2ff5}, !- Handle
  Surface 13,                             !- Name
  Floor,                                  !- Surface Type
  ,                                       !- Construction Name
  {29bfb3d9-228e-423d-b111-f952219df0ff}, !- Space Name
  Ground,                                 !- Outside Boundary Condition
  ,                                       !- Outside Boundary Condition Object
  NoSun,                                  !- Sun Exposure
  NoWind,                                 !- Wind Exposure
  ,                                       !- View Factor to Ground
  ,                                       !- Number of Vertices
  2.99999999999997, 28.6196141658939, 0,  !- X,Y,Z Vertex 1 {m}
  2.99999999999997, -3, 0,                !- X,Y,Z Vertex 2 {m}
  -2.8421709430404e-14, 0, 0,             !- X,Y,Z Vertex 3 {m}
  -2.8421709430404e-14, 25.6196141658939, 0; !- X,Y,Z Vertex 4 {m}

OS:Surface,
  {65d18ebf-2d12-4851-93f0-9d0d83056621}, !- Handle
  Surface 14,                             !- Name
  Wall,                                   !- Surface Type
  ,                                       !- Construction Name
  {29bfb3d9-228e-423d-b111-f952219df0ff}, !- Space Name
  Outdoors,                               !- Outside Boundary Condition
  ,                                       !- Outside Boundary Condition Object
  SunExposed,                             !- Sun Exposure
  WindExposed,                            !- Wind Exposure
  ,                                       !- View Factor to Ground
  ,                                       !- Number of Vertices
  2.99999999999997, -3, 4,                !- X,Y,Z Vertex 1 {m}
  2.99999999999997, -3, 0,                !- X,Y,Z Vertex 2 {m}
  2.99999999999997, 28.6196141658939, 0,  !- X,Y,Z Vertex 3 {m}
  2.99999999999997, 28.6196141658939, 4;  !- X,Y,Z Vertex 4 {m}

OS:Surface,
  {00e03e98-d5a2-4f37-bd67-b895e3f8592b}, !- Handle
  Surface 15,                             !- Name
  Wall,                                   !- Surface Type
  ,                                       !- Construction Name
  {29bfb3d9-228e-423d-b111-f952219df0ff}, !- Space Name
  Surface,                                !- Outside Boundary Condition
  {33a3a5ac-11a7-4f78-a968-f0fcd00b7318}, !- Outside Boundary Condition Object
  NoSun,                                  !- Sun Exposure
  NoWind,                                 !- Wind Exposure
  ,                                       !- View Factor to Ground
  ,                                       !- Number of Vertices
  -2.8421709430404e-14, 0, 4,             !- X,Y,Z Vertex 1 {m}
  -2.8421709430404e-14, 0, 0,             !- X,Y,Z Vertex 2 {m}
  2.99999999999997, -3, 0,                !- X,Y,Z Vertex 3 {m}
  2.99999999999997, -3, 4;                !- X,Y,Z Vertex 4 {m}

OS:Surface,
  {197edd53-f7fb-4b76-9399-3961e7cc3af4}, !- Handle
  Surface 16,                             !- Name
  Wall,                                   !- Surface Type
  ,                                       !- Construction Name
  {29bfb3d9-228e-423d-b111-f952219df0ff}, !- Space Name
  Surface,                                !- Outside Boundary Condition
  {5ec05cc5-0404-49b1-a09c-92f7b465ffcf}, !- Outside Boundary Condition Object
  NoSun,                                  !- Sun Exposure
  NoWind,                                 !- Wind Exposure
  ,                                       !- View Factor to Ground
  ,                                       !- Number of Vertices
  -2.8421709430404e-14, 25.6196141658939, 4, !- X,Y,Z Vertex 1 {m}
  -2.8421709430404e-14, 25.6196141658939, 0, !- X,Y,Z Vertex 2 {m}
  -2.8421709430404e-14, 0, 0,             !- X,Y,Z Vertex 3 {m}
  -2.8421709430404e-14, 0, 4;             !- X,Y,Z Vertex 4 {m}

OS:Surface,
  {60723b1e-679e-4bf3-9469-20d80a71834a}, !- Handle
  Surface 17,                             !- Name
  Wall,                                   !- Surface Type
  ,                                       !- Construction Name
  {29bfb3d9-228e-423d-b111-f952219df0ff}, !- Space Name
  Surface,                                !- Outside Boundary Condition
  {a3d80ed3-3a34-4946-a0a4-395296c624a5}, !- Outside Boundary Condition Object
  NoSun,                                  !- Sun Exposure
  NoWind,                                 !- Wind Exposure
  ,                                       !- View Factor to Ground
  ,                                       !- Number of Vertices
  2.99999999999997, 28.6196141658939, 4,  !- X,Y,Z Vertex 1 {m}
  2.99999999999997, 28.6196141658939, 0,  !- X,Y,Z Vertex 2 {m}
  -2.8421709430404e-14, 25.6196141658939, 0, !- X,Y,Z Vertex 3 {m}
  -2.8421709430404e-14, 25.6196141658939, 4; !- X,Y,Z Vertex 4 {m}

OS:Surface,
  {f94b0f33-6a47-4a16-9488-b74a67a916c4}, !- Handle
  Surface 18,                             !- Name
  RoofCeiling,                            !- Surface Type
  ,                                       !- Construction Name
  {29bfb3d9-228e-423d-b111-f952219df0ff}, !- Space Name
  Surface,                                !- Outside Boundary Condition
  {80a560f5-aee9-4083-9efe-0b84dc199615}, !- Outside Boundary Condition Object
  NoSun,                                  !- Sun Exposure
  NoWind,                                 !- Wind Exposure
  ,                                       !- View Factor to Ground
  ,                                       !- Number of Vertices
  -2.8421709430404e-14, 25.6196141658939, 4, !- X,Y,Z Vertex 1 {m}
  -2.8421709430404e-14, 0, 4,             !- X,Y,Z Vertex 2 {m}
  2.99999999999997, -3, 4,                !- X,Y,Z Vertex 3 {m}
  2.99999999999997, 28.6196141658939, 4;  !- X,Y,Z Vertex 4 {m}

OS:Space,
  {dc7ed957-173d-4230-80b1-1958b2f536e1}, !- Handle
  Story 1 South Perimeter Space,          !- Name
  ,                                       !- Space Type Name
  ,                                       !- Default Construction Set Name
  ,                                       !- Default Schedule Set Name
  -0,                                     !- Direction of Relative North {deg}
  0,                                      !- X Origin {m}
  0,                                      !- Y Origin {m}
  0,                                      !- Z Origin {m}
  {863d5ae1-2892-405a-a72d-805638554f69}, !- Building Story Name
  {b77358d3-89bb-46b8-a277-a02882f2bbee}; !- Thermal Zone Name

OS:Surface,
  {d4164e9e-a30a-4765-af50-fc84a28c32a7}, !- Handle
  Surface 19,                             !- Name
  Floor,                                  !- Surface Type
  ,                                       !- Construction Name
  {dc7ed957-173d-4230-80b1-1958b2f536e1}, !- Space Name
  Ground,                                 !- Outside Boundary Condition
  ,                                       !- Outside Boundary Condition Object
  NoSun,                                  !- Sun Exposure
  NoWind,                                 !- Wind Exposure
  ,                                       !- View Factor to Ground
  ,                                       !- Number of Vertices
  31.6196141658939, 0, 0,                 !- X,Y,Z Vertex 1 {m}
  0, 0, 0,                                !- X,Y,Z Vertex 2 {m}
  3, 3, 0,                                !- X,Y,Z Vertex 3 {m}
  28.6196141658939, 3, 0;                 !- X,Y,Z Vertex 4 {m}

OS:Surface,
  {61d53417-fea2-442c-bf11-c63dc5e8a29c}, !- Handle
  Surface 20,                             !- Name
  Wall,                                   !- Surface Type
  ,                                       !- Construction Name
  {dc7ed957-173d-4230-80b1-1958b2f536e1}, !- Space Name
  Outdoors,                               !- Outside Boundary Condition
  ,                                       !- Outside Boundary Condition Object
  SunExposed,                             !- Sun Exposure
  WindExposed,                            !- Wind Exposure
  ,                                       !- View Factor to Ground
  ,                                       !- Number of Vertices
  0, 0, 4,                                !- X,Y,Z Vertex 1 {m}
  0, 0, 0,                                !- X,Y,Z Vertex 2 {m}
  31.6196141658939, 0, 0,                 !- X,Y,Z Vertex 3 {m}
  31.6196141658939, 0, 4;                 !- X,Y,Z Vertex 4 {m}

OS:Surface,
  {24af796b-fd13-4a78-88e0-a48e6a9f5b2b}, !- Handle
  Surface 21,                             !- Name
  Wall,                                   !- Surface Type
  ,                                       !- Construction Name
  {dc7ed957-173d-4230-80b1-1958b2f536e1}, !- Space Name
  Surface,                                !- Outside Boundary Condition
  {8f36002c-80ac-4b8e-8d32-1a8ca03a029b}, !- Outside Boundary Condition Object
  NoSun,                                  !- Sun Exposure
  NoWind,                                 !- Wind Exposure
  ,                                       !- View Factor to Ground
  ,                                       !- Number of Vertices
  3, 3, 4,                                !- X,Y,Z Vertex 1 {m}
  3, 3, 0,                                !- X,Y,Z Vertex 2 {m}
  0, 0, 0,                                !- X,Y,Z Vertex 3 {m}
  0, 0, 4;                                !- X,Y,Z Vertex 4 {m}

OS:Surface,
  {cebddce2-e0d7-40fc-bdcf-d870b38fdf53}, !- Handle
  Surface 22,                             !- Name
  Wall,                                   !- Surface Type
  ,                                       !- Construction Name
  {dc7ed957-173d-4230-80b1-1958b2f536e1}, !- Space Name
  Surface,                                !- Outside Boundary Condition
  {7e68f41b-e49d-4dfd-b4ab-41290301050f}, !- Outside Boundary Condition Object
  NoSun,                                  !- Sun Exposure
  NoWind,                                 !- Wind Exposure
  ,                                       !- View Factor to Ground
  ,                                       !- Number of Vertices
  28.6196141658939, 3, 4,                 !- X,Y,Z Vertex 1 {m}
  28.6196141658939, 3, 0,                 !- X,Y,Z Vertex 2 {m}
  3, 3, 0,                                !- X,Y,Z Vertex 3 {m}
  3, 3, 4;                                !- X,Y,Z Vertex 4 {m}

OS:Surface,
  {33a3a5ac-11a7-4f78-a968-f0fcd00b7318}, !- Handle
  Surface 23,                             !- Name
  Wall,                                   !- Surface Type
  ,                                       !- Construction Name
  {dc7ed957-173d-4230-80b1-1958b2f536e1}, !- Space Name
  Surface,                                !- Outside Boundary Condition
  {00e03e98-d5a2-4f37-bd67-b895e3f8592b}, !- Outside Boundary Condition Object
  NoSun,                                  !- Sun Exposure
  NoWind,                                 !- Wind Exposure
  ,                                       !- View Factor to Ground
  ,                                       !- Number of Vertices
  31.6196141658939, 0, 4,                 !- X,Y,Z Vertex 1 {m}
  31.6196141658939, 0, 0,                 !- X,Y,Z Vertex 2 {m}
  28.6196141658939, 3, 0,                 !- X,Y,Z Vertex 3 {m}
  28.6196141658939, 3, 4;                 !- X,Y,Z Vertex 4 {m}

OS:Surface,
  {0bfbec6f-1296-4bd6-b48c-ddff2574d457}, !- Handle
  Surface 24,                             !- Name
  RoofCeiling,                            !- Surface Type
  ,                                       !- Construction Name
  {dc7ed957-173d-4230-80b1-1958b2f536e1}, !- Space Name
  Surface,                                !- Outside Boundary Condition
  {64517689-6029-4ede-a4b2-5256e8fa476b}, !- Outside Boundary Condition Object
  NoSun,                                  !- Sun Exposure
  NoWind,                                 !- Wind Exposure
  ,                                       !- View Factor to Ground
  ,                                       !- Number of Vertices
  28.6196141658939, 3, 4,                 !- X,Y,Z Vertex 1 {m}
  3, 3, 4,                                !- X,Y,Z Vertex 2 {m}
  0, 0, 4,                                !- X,Y,Z Vertex 3 {m}
  31.6196141658939, 0, 4;                 !- X,Y,Z Vertex 4 {m}

OS:Space,
  {7259fa25-e365-46f3-921d-b8fcff27c532}, !- Handle
  Story 1 Core Space,                     !- Name
  ,                                       !- Space Type Name
  ,                                       !- Default Construction Set Name
  ,                                       !- Default Schedule Set Name
  -0,                                     !- Direction of Relative North {deg}
  3,                                      !- X Origin {m}
  3,                                      !- Y Origin {m}
  0,                                      !- Z Origin {m}
  {863d5ae1-2892-405a-a72d-805638554f69}, !- Building Story Name
  {2146c015-ff26-49e7-b32d-64e51dbb2ea7}; !- Thermal Zone Name

OS:Surface,
  {34aacde3-0a62-41dd-a422-d30947d31463}, !- Handle
  Surface 25,                             !- Name
  Floor,                                  !- Surface Type
  ,                                       !- Construction Name
  {7259fa25-e365-46f3-921d-b8fcff27c532}, !- Space Name
  Ground,                                 !- Outside Boundary Condition
  ,                                       !- Outside Boundary Condition Object
  NoSun,                                  !- Sun Exposure
  NoWind,                                 !- Wind Exposure
  ,                                       !- View Factor to Ground
  ,                                       !- Number of Vertices
  0, 0, 0,                                !- X,Y,Z Vertex 1 {m}
  0, 25.6196141658939, 0,                 !- X,Y,Z Vertex 2 {m}
  25.6196141658939, 25.6196141658939, 0,  !- X,Y,Z Vertex 3 {m}
  25.6196141658939, 0, 0;                 !- X,Y,Z Vertex 4 {m}

OS:Surface,
  {54eb694d-fc88-493c-9f14-3326c6c81552}, !- Handle
  Surface 26,                             !- Name
  Wall,                                   !- Surface Type
  ,                                       !- Construction Name
  {7259fa25-e365-46f3-921d-b8fcff27c532}, !- Space Name
  Surface,                                !- Outside Boundary Condition
  {3e31d964-96f0-4d20-ac7d-c46ba4dbfcb4}, !- Outside Boundary Condition Object
  NoSun,                                  !- Sun Exposure
  NoWind,                                 !- Wind Exposure
  ,                                       !- View Factor to Ground
  ,                                       !- Number of Vertices
  0, 25.6196141658939, 4,                 !- X,Y,Z Vertex 1 {m}
  0, 25.6196141658939, 0,                 !- X,Y,Z Vertex 2 {m}
  0, 0, 0,                                !- X,Y,Z Vertex 3 {m}
  0, 0, 4;                                !- X,Y,Z Vertex 4 {m}

OS:Surface,
  {3a5ceb8c-2039-4021-a35a-52446de5eeff}, !- Handle
  Surface 27,                             !- Name
  Wall,                                   !- Surface Type
  ,                                       !- Construction Name
  {7259fa25-e365-46f3-921d-b8fcff27c532}, !- Space Name
  Surface,                                !- Outside Boundary Condition
  {1d9a396d-153c-4a75-9c49-c90da500f280}, !- Outside Boundary Condition Object
  NoSun,                                  !- Sun Exposure
  NoWind,                                 !- Wind Exposure
  ,                                       !- View Factor to Ground
  ,                                       !- Number of Vertices
  25.6196141658939, 25.6196141658939, 4,  !- X,Y,Z Vertex 1 {m}
  25.6196141658939, 25.6196141658939, 0,  !- X,Y,Z Vertex 2 {m}
  0, 25.6196141658939, 0,                 !- X,Y,Z Vertex 3 {m}
  0, 25.6196141658939, 4;                 !- X,Y,Z Vertex 4 {m}

OS:Surface,
  {5ec05cc5-0404-49b1-a09c-92f7b465ffcf}, !- Handle
  Surface 28,                             !- Name
  Wall,                                   !- Surface Type
  ,                                       !- Construction Name