
OS:Version,
  {e3dd8a16-619a-48ba-aa6d-0ca6de13f9d9}, !- Handle
  0.10.0;                                 !- Version Identifier

OS:BuildingStory,
  {0dabef8f-8b9a-4816-b86d-325c737e94f4}, !- Handle
  Story 1,                                !- Name
  0,                                      !- Nominal Z Coordinate {m}
  4,                                      !- Nominal Floor to Floor Height {m}
  ,                                       !- Default Construction Set Name
  ,                                       !- Default Schedule Set Name
  ;                                       !- Group Rendering Name

OS:Space,
  {8c72e101-8367-4705-aa16-440038a2ee6c}, !- Handle
  Story 1 West Perimeter Space,           !- Name
  ,                                       !- Space Type Name
  ,                                       !- Default Construction Set Name
  ,                                       !- Default Schedule Set Name
  -0,                                     !- Direction of Relative North {deg}
  0,                                      !- X Origin {m}
  0,                                      !- Y Origin {m}
  0,                                      !- Z Origin {m}
  {0dabef8f-8b9a-4816-b86d-325c737e94f4}, !- Building Story Name
  {6d17baa3-64c2-4f6c-958d-7efc92027564}; !- Thermal Zone Name

OS:Surface,
  {941485c0-7ae2-41a2-be09-f266bd7bf759}, !- Handle
  Surface 1,                              !- Name
  Floor,                                  !- Surface Type
  ,                                       !- Construction Name
  {8c72e101-8367-4705-aa16-440038a2ee6c}, !- Space Name
  Ground,                                 !- Outside Boundary Condition
  ,                                       !- Outside Boundary Condition Object
  NoSun,                                  !- Sun Exposure
  NoWind,                                 !- Wind Exposure
  ,                                       !- View Factor to Ground
  ,                                       !- Number of Vertices
  0, 0, 0,                                !- X,Y,Z Vertex 1 {m}
  0, 11.1803398874989, 0,                 !- X,Y,Z Vertex 2 {m}
  3, 8.18033988749895, 0,                 !- X,Y,Z Vertex 3 {m}
  3, 3, 0;                                !- X,Y,Z Vertex 4 {m}

OS:Surface,
  {aa7a957d-cb2d-4129-9fec-28bfd8618bf0}, !- Handle
  Surface 2,                              !- Name
  Wall,                                   !- Surface Type
  ,                                       !- Construction Name
  {8c72e101-8367-4705-aa16-440038a2ee6c}, !- Space Name
  Outdoors,                               !- Outside Boundary Condition
  ,                                       !- Outside Boundary Condition Object
  SunExposed,                             !- Sun Exposure
  WindExposed,                            !- Wind Exposure
  ,                                       !- View Factor to Ground
  ,                                       !- Number of Vertices
  0, 11.1803398874989, 4,                 !- X,Y,Z Vertex 1 {m}
  0, 11.1803398874989, 0,                 !- X,Y,Z Vertex 2 {m}
  0, 0, 0,                                !- X,Y,Z Vertex 3 {m}
  0, 0, 4;                                !- X,Y,Z Vertex 4 {m}

OS:Surface,
  {e905fd50-ec59-4b77-9bea-48b948e1cdf0}, !- Handle
  Surface 3,                              !- Name
  Wall,                                   !- Surface Type
  ,                                       !- Construction Name
  {8c72e101-8367-4705-aa16-440038a2ee6c}, !- Space Name
  Surface,                                !- Outside Boundary Condition
  {aa0952e2-9efa-433d-a472-c0dbc67d48dd}, !- Outside Boundary Condition Object
  NoSun,                                  !- Sun Exposure
  NoWind,                                 !- Wind Exposure
  ,                                       !- View Factor to Ground
  ,                                       !- Number of Vertices
  3, 8.18033988749895, 4,                 !- X,Y,Z Vertex 1 {m}
  3, 8.18033988749895, 0,                 !- X,Y,Z Vertex 2 {m}
  0, 11.1803398874989, 0,                 !- X,Y,Z Vertex 3 {m}
  0, 11.1803398874989, 4;                 !- X,Y,Z Vertex 4 {m}

OS:Surface,
  {19099d5e-38cf-456c-b694-e7b96f117082}, !- Handle
  Surface 4,                              !- Name
  Wall,                                   !- Surface Type
  ,                                       !- Construction Name
  {8c72e101-8367-4705-aa16-440038a2ee6c}, !- Space Name
  Surface,                                !- Outside Boundary Condition
  {ebcd132a-7308-492e-b2b0-d85d40301c74}, !- Outside Boundary Condition Object
  NoSun,                                  !- Sun Exposure
  NoWind,                                 !- Wind Exposure
  ,                                       !- View Factor to Ground
  ,                                       !- Number of Vertices
  3, 3, 4,                                !- X,Y,Z Vertex 1 {m}
  3, 3, 0,                                !- X,Y,Z Vertex 2 {m}
  3, 8.18033988749895, 0,                 !- X,Y,Z Vertex 3 {m}
  3, 8.18033988749895, 4;                 !- X,Y,Z Vertex 4 {m}

OS:Surface,
  {f51bd716-0e1e-487e-b384-469013759c72}, !- Handle
  Surface 5,                              !- Name
  Wall,                                   !- Surface Type
  ,                                       !- Construction Name
  {8c72e101-8367-4705-aa16-440038a2ee6c}, !- Space Name
  Surface,                                !- Outside Boundary Condition
  {51fb9375-9051-4198-970a-7a87c0fa9690}, !- Outside Boundary Condition Object
  NoSun,                                  !- Sun Exposure
  NoWind,                                 !- Wind Exposure
  ,                                       !- View Factor to Ground
  ,                                       !- Number of Vertices
  0, 0, 4,                                !- X,Y,Z Vertex 1 {m}
  0, 0, 0,                                !- X,Y,Z Vertex 2 {m}
  3, 3, 0,                                !- X,Y,Z Vertex 3 {m}
  3, 3, 4;                                !- X,Y,Z Vertex 4 {m}

OS:Surface,
  {89338071-4458-4e9f-b1ef-2cd61b2ba9a9}, !- Handle
  Surface 6,                              !- Name
  RoofCeiling,                            !- Surface Type
  ,                                       !- Construction Name
  {8c72e101-8367-4705-aa16-440038a2ee6c}, !- Space Name
  Outdoors,                               !- Outside Boundary Condition
  ,                                       !- Outside Boundary Condition Object
  SunExposed,                             !- Sun Exposure
  WindExposed,                            !- Wind Exposure
  ,                                       !- View Factor to Ground
  ,                                       !- Number of Vertices
  3, 3, 4,                                !- X,Y,Z Vertex 1 {m}
  3, 8.18033988749895, 4,                 !- X,Y,Z Vertex 2 {m}
  0, 11.1803398874989, 4,                 !- X,Y,Z Vertex 3 {m}
  0, 0, 4;                                !- X,Y,Z Vertex 4 {m}

OS:Space,
  {18ef9b19-7676-4c9c-b65d-141c41b89330}, !- Handle
  Story 1 North Perimeter Space,          !- Name
  ,                                       !- Space Type Name
  ,                                       !- Default Construction Set Name
  ,                                       !- Default Schedule Set Name
  -0,                                     !- Direction of Relative North {deg}
  3,                                      !- X Origin {m}
  8.18033988749895,                       !- Y Origin {m}
  0,                                      !- Z Origin {m}
  {0dabef8f-8b9a-4816-b86d-325c737e94f4}, !- Building Story Name
  {3cec7918-d6ef-4a8f-a93c-0928ce9fbe79}; !- Thermal Zone Name

OS:Surface,
  {099401dc-68de-4c92-aee4-9e7ec98971e0}, !- Handle
  Surface 7,                              !- Name
  Floor,                                  !- Surface Type
  ,                                       !- Construction Name
  {18ef9b19-7676-4c9c-b65d-141c41b89330}, !- Space Name
  Ground,                                 !- Outside Boundary Condition
  ,                                       !- Outside Boundary Condition Object
  NoSun,                                  !- Sun Exposure
  NoWind,                                 !- Wind Exposure
  ,                                       !- View Factor to Ground
  ,                                       !- Number of Vertices
  -3, 2.99999999999995, 0,                !- X,Y,Z Vertex 1 {m}
  8.1803398874989, 2.99999999999995, 0,   !- X,Y,Z Vertex 2 {m}
  5.18033988749895, 1.77635683940025e-15, 0, !- X,Y,Z Vertex 3 {m}
  0, 1.77635683940025e-15, 0;             !- X,Y,Z Vertex 4 {m}

OS:Surface,
  {b7807f90-a101-40ea-9cc0-73824d61f2df}, !- Handle
  Surface 8,                              !- Name
  Wall,                                   !- Surface Type
  ,                                       !- Construction Name
  {18ef9b19-7676-4c9c-b65d-141c41b89330}, !- Space Name
  Outdoors,                               !- Outside Boundary Condition
  ,                                       !- Outside Boundary Condition Object
  SunExposed,                             !- Sun Exposure
  WindExposed,                            !- Wind Exposure
  ,                                       !- View Factor to Ground
  ,                                       !- Number of Vertices
  8.1803398874989, 2.99999999999995, 4,   !- X,Y,Z Vertex 1 {m}
  8.1803398874989, 2.99999999999995, 0,   !- X,Y,Z Vertex 2 {m}
  -3, 2.99999999999995, 0,                !- X,Y,Z Vertex 3 {m}
  -3, 2.99999999999995, 4;                !- X,Y,Z Vertex 4 {m}

OS:Surface,
  {3e8eff9b-4add-412e-af37-dfec59bf2841}, !- Handle
  Surface 9,                              !- Name
  Wall,                                   !- Surface Type
  ,                                       !- Construction Name
  {18ef9b19-7676-4c9c-b65d-141c41b89330}, !- Space Name
  Surface,                                !- Outside Boundary Condition
  {58812de3-a57a-4b9e-b645-0edc1770bdbb}, !- Outside Boundary Condition Object
  NoSun,                                  !- Sun Exposure
  NoWind,                                 !- Wind Exposure
  ,                                       !- View Factor to Ground
  ,                                       !- Number of Vertices
  5.18033988749895, 1.77635683940025e-15, 4, !- X,Y,Z Vertex 1 {m}
  5.18033988749895, 1.77635683940025e-15, 0, !- X,Y,Z Vertex 2 {m}
  8.1803398874989, 2.99999999999995, 0,   !- X,Y,Z Vertex 3 {m}
  8.1803398874989, 2.99999999999995, 4;   !- X,Y,Z Vertex 4 {m}

OS:Surface,
  {d9286bdc-8ad3-4d15-a014-0a8665c4ab18}, !- Handle
  Surface 10,                             !- Name
  Wall,                                   !- Surface Type
  ,                                       !- Construction Name
  {18ef9b19-7676-4c9c-b65d-141c41b89330}, !- Space Name
  Surface,                                !- Outside Boundary Condition
  {9720345b-8d3d-4fc9-831e-4f5f5afe80cf}, !- Outside Boundary Condition Object
  NoSun,                                  !- Sun Exposure
  NoWind,                                 !- Wind Exposure
  ,                                       !- View Factor to Ground
  ,                                       !- Number of Vertices
  0, 1.77635683940025e-15, 4,             !- X,Y,Z Vertex 1 {m}
  0, 1.77635683940025e-15, 0,             !- X,Y,Z Vertex 2 {m}
  5.18033988749895, 1.77635683940025e-15, 0, !- X,Y,Z Vertex 3 {m}
  5.18033988749895, 1.77635683940025e-15, 4; !- X,Y,Z Vertex 4 {m}

OS:Surface,
  {aa0952e2-9efa-433d-a472-c0dbc67d48dd}, !- Handle
  Surface 11,                             !- Name
  Wall,                                   !- Surface Type
  ,                                       !- Construction Name
  {18ef9b19-7676-4c9c-b65d-141c41b89330}, !- Space Name
  Surface,                                !- Outside Boundary Condition
  {e905fd50-ec59-4b77-9bea-48b948e1cdf0}, !- Outside Boundary Condition Object
  NoSun,                                  !- Sun Exposure
  NoWind,                                 !- Wind Exposure
  ,                                       !- View Factor to Ground
  ,                                       !- Number of Vertices
  -3, 2.99999999999995, 4,                !- X,Y,Z Vertex 1 {m}
  -3, 2.99999999999995, 0,                !- X,Y,Z Vertex 2 {m}
  0, 1.77635683940025e-15, 0,             !- X,Y,Z Vertex 3 {m}
  0, 1.77635683940025e-15, 4;             !- X,Y,Z Vertex 4 {m}

OS:Surface,
  {d4a850fa-38dd-460e-81df-547e6d882883}, !- Handle
  Surface 12,                             !- Name
  RoofCeiling,                            !- Surface Type
  ,                                       !- Construction Name
  {18ef9b19-7676-4c9c-b65d-141c41b89330}, !- Space Name
  Outdoors,                               !- Outside Boundary Condition
  ,                                       !- Outside Boundary Condition Object
  SunExposed,                             !- Sun Exposure
  WindExposed,                            !- Wind Exposure
  ,                                       !- View Factor to Ground
  ,                                       !- Number of Vertices
  0, 1.77635683940025e-15, 4,             !- X,Y,Z Vertex 1 {m}
  5.18033988749895, 1.77635683940025e-15, 4, !- X,Y,Z Vertex 2 {m}
  8.1803398874989, 2.99999999999995, 4,   !- X,Y,Z Vertex 3 {m}
  -3, 2.99999999999995, 4;                !- X,Y,Z Vertex 4 {m}

OS:Space,
  {95e74fb5-dd2c-4732-8ff6-d8c0940b9922}, !- Handle
  Story 1 East Perimeter Space,           !- Name
  ,                                       !- Space Type Name
  ,                                       !- Default Construction Set Name
  ,                                       !- Default Schedule Set Name
  -0,                                     !- Direction of Relative North {deg}
  8.18033988749895,                       !- X Origin {m}
  3,                                      !- Y Origin {m}
  0,                                      !- Z Origin {m}
  {0dabef8f-8b9a-4816-b86d-325c737e94f4}, !- Building Story Name
  {a8493583-4fe1-4002-8202-94160c919dff}; !- Thermal Zone Name

OS:Surface,
  {49722ebb-1ffc-4687-81ee-e3276b8e75a3}, !- Handle
  Surface 13,                             !- Name
  Floor,                                  !- Surface Type
  ,                                       !- Construction Name
  {95e74fb5-dd2c-4732-8ff6-d8c0940b9922}, !- Space Name
  Ground,                                 !- Outside Boundary Condition
  ,                                       !- Outside Boundary Condition Object
  NoSun,                                  !- Sun Exposure
  NoWind,                                 !- Wind Exposure
  ,                                       !- View Factor to Ground
  ,                                       !- Number of Vertices
  2.99999999999995, 8.1803398874989, 0,   !- X,Y,Z Vertex 1 {m}
  2.99999999999995, -3, 0,                !- X,Y,Z Vertex 2 {m}
  1.77635683940025e-15, 0, 0,             !- X,Y,Z Vertex 3 {m}
  1.77635683940025e-15, 5.18033988749895, 0; !- X,Y,Z Vertex 4 {m}

OS:Surface,
  {c7672e38-c1d9-4371-9c85-cb90893f165a}, !- Handle
  Surface 14,                             !- Name
  Wall,                                   !- Surface Type
  ,                                       !- Construction Name
  {95e74fb5-dd2c-4732-8ff6-d8c0940b9922}, !- Space Name
  Outdoors,                               !- Outside Boundary Condition
  ,                                       !- Outside Boundary Condition Object
  SunExposed,                             !- Sun Exposure
  WindExposed,                            !- Wind Exposure
  ,                                       !- View Factor to Ground
  ,                                       !- Number of Vertices
  2.99999999999995, -3, 4,                !- X,Y,Z Vertex 1 {m}
  2.99999999999995, -3, 0,                !- X,Y,Z Vertex 2 {m}
  2.99999999999995, 8.1803398874989, 0,   !- X,Y,Z Vertex 3 {m}
  2.99999999999995, 8.1803398874989, 4;   !- X,Y,Z Vertex 4 {m}

OS:Surface,
  {f52a8798-4ade-4e78-a2be-5a697e232dfe}, !- Handle
  Surface 15,                             !- Name
  Wall,                                   !- Surface Type
  ,                                       !- Construction Name
  {95e74fb5-dd2c-4732-8ff6-d8c0940b9922}, !- Space Name
  Surface,                                !- Outside Boundary Condition
  {de41b732-fc21-4c9e-90e7-6b3845938dab}, !- Outside Boundary Condition Object
  NoSun,                                  !- Sun Exposure
  NoWind,                                 !- Wind Exposure
  ,                                       !- View Factor to Ground
  ,                                       !- Number of Vertices
  1.77635683940025e-15, 0, 4,             !- X,Y,Z Vertex 1 {m}
  1.77635683940025e-15, 0, 0,             !- X,Y,Z Vertex 2 {m}
  2.99999999999995, -3, 0,                !- X,Y,Z Vertex 3 {m}
  2.99999999999995, -3, 4;                !- X,Y,Z Vertex 4 {m}

OS:Surface,
  {276825d9-016f-420a-ab30-2d2558bbfaca}, !- Handle
  Surface 16,                             !- Name
  Wall,                                   !- Surface Type
  ,                                       !- Construction Name
  {95e74fb5-dd2c-4732-8ff6-d8c0940b9922}, !- Space Name
  Surface,                                !- Outside Boundary Condition
  {23241aac-2733-4377-932f-cf34fe432553}, !- Outside Boundary Condition Object
  NoSun,                                  !- Sun Exposure
  NoWind,                                 !- Wind Exposure
  ,                                       !- View Factor to Ground
  ,                                       !- Number of Vertices
  1.77635683940025e-15, 5.18033988749895, 4, !- X,Y,Z Vertex 1 {m}
  1.77635683940025e-15, 5.18033988749895, 0, !- X,Y,Z Vertex 2 {m}
  1.77635683940025e-15, 0, 0,             !- X,Y,Z Vertex 3 {m}
  1.77635683940025e-15, 0, 4;             !- X,Y,Z Vertex 4 {m}

OS:Surface,
  {58812de3-a57a-4b9e-b645-0edc1770bdbb}, !- Handle
  Surface 17,                             !- Name
  Wall,                                   !- Surface Type
  ,                                       !- Construction Name
  {95e74fb5-dd2c-4732-8ff6-d8c0940b9922}, !- Space Name
  Surface,                                !- Outside Boundary Condition
  {3e8eff9b-4add-412e-af37-dfec59bf2841}, !- Outside Boundary Condition Object
  NoSun,                                  !- Sun Exposure
  NoWind,                                 !- Wind Exposure
  ,                                       !- View Factor to Ground
  ,                                       !- Number of Vertices
  2.99999999999995, 8.1803398874989, 4,   !- X,Y,Z Vertex 1 {m}
  2.99999999999995, 8.1803398874989, 0,   !- X,Y,Z Vertex 2 {m}
  1.77635683940025e-15, 5.18033988749895, 0, !- X,Y,Z Vertex 3 {m}
  1.77635683940025e-15, 5.18033988749895, 4; !- X,Y,Z Vertex 4 {m}

OS:Surface,
  {25248b2e-f504-4812-8ec5-b730de1c0797}, !- Handle
  Surface 18,                             !- Name
  RoofCeiling,                            !- Surface Type
  ,                                       !- Construction Name
  {95e74fb5-dd2c-4732-8ff6-d8c0940b9922}, !- Space Name
  Outdoors,                               !- Outside Boundary Condition
  ,                                       !- Outside Boundary Condition Object
  SunExposed,                             !- Sun Exposure
  WindExposed,                            !- Wind Exposure
  ,                                       !- View Factor to Ground
  ,                                       !- Number of Vertices
  1.77635683940025e-15, 5.18033988749895, 4, !- X,Y,Z Vertex 1 {m}
  1.77635683940025e-15, 0, 4,             !- X,Y,Z Vertex 2 {m}
  2.99999999999995, -3, 4,                !- X,Y,Z Vertex 3 {m}
  2.99999999999995, 8.1803398874989, 4;   !- X,Y,Z Vertex 4 {m}

OS:Space,
  {e1407781-ab66-45fa-83c3-ed53051a5c0a}, !- Handle
  Story 1 South Perimeter Space,          !- Name
  ,                                       !- Space Type Name
  ,                                       !- Default Construction Set Name
  ,                                       !- Default Schedule Set Name
  -0,                                     !- Direction of Relative North {deg}
  0,                                      !- X Origin {m}
  0,                                      !- Y Origin {m}
  0,                                      !- Z Origin {m}
  {0dabef8f-8b9a-4816-b86d-325c737e94f4}, !- Building Story Name
  {5be28c37-54bb-42a9-a21b-449a31139d99}; !- Thermal Zone Name

OS:Surface,
  {0eab0e6d-5ab8-4158-93ca-48e08fefecbc}, !- Handle
  Surface 19,                             !- Name
  Floor,                                  !- Surface Type
  ,                                       !- Construction Name
  {e1407781-ab66-45fa-83c3-ed53051a5c0a}, !- Space Name
  Ground,                                 !- Outside Boundary Condition
  ,                                       !- Outside Boundary Condition Object
  NoSun,                                  !- Sun Exposure
  NoWind,                                 !- Wind Exposure
  ,                                       !- View Factor to Ground
  ,                                       !- Number of Vertices
  11.1803398874989, 0, 0,                 !- X,Y,Z Vertex 1 {m}
  0, 0, 0,                                !- X,Y,Z Vertex 2 {m}
  3, 3, 0,                                !- X,Y,Z Vertex 3 {m}
  8.18033988749895, 3, 0;                 !- X,Y,Z Vertex 4 {m}

OS:Surface,
  {3d177672-e78c-4a66-900b-981adfb3e130}, !- Handle
  Surface 20,                             !- Name
  Wall,                                   !- Surface Type
  ,                                       !- Construction Name
  {e1407781-ab66-45fa-83c3-ed53051a5c0a}, !- Space Name
  Outdoors,                               !- Outside Boundary Condition
  ,                                       !- Outside Boundary Condition Object
  SunExposed,                             !- Sun Exposure
  WindExposed,                            !- Wind Exposure
  ,                                       !- View Factor to Ground
  ,                                       !- Number of Vertices
  0, 0, 4,                                !- X,Y,Z Vertex 1 {m}
  0, 0, 0,                                !- X,Y,Z Vertex 2 {m}
  11.1803398874989, 0, 0,                 !- X,Y,Z Vertex 3 {m}
  11.1803398874989, 0, 4;                 !- X,Y,Z Vertex 4 {m}

OS:Surface,
  {51fb9375-9051-4198-970a-7a87c0fa9690}, !- Handle
  Surface 21,                             !- Name
  Wall,                                   !- Surface Type
  ,                                       !- Construction Name
  {e1407781-ab66-45fa-83c3-ed53051a5c0a}, !- Space Name
  Surface,                                !- Outside Boundary Condition
  {f51bd716-0e1e-487e-b384-469013759c72}, !- Outside Boundary Condition Object
  NoSun,                                  !- Sun Exposure
  NoWind,                                 !- Wind Exposure
  ,                                       !- View Factor to Ground
  ,                                       !- Number of Vertices
  3, 3, 4,                                !- X,Y,Z Vertex 1 {m}
  3, 3, 0,                                !- X,Y,Z Vertex 2 {m}
  0, 0, 0,                                !- X,Y,Z Vertex 3 {m}
  0, 0, 4;                                !- X,Y,Z Vertex 4 {m}

OS:Surface,
  {9ecc4483-19d0-46d4-b1e3-bb4f9106d356}, !- Handle
  Surface 22,                             !- Name
  Wall,                                   !- Surface Type
  ,                                       !- Construction Name
  {e1407781-ab66-45fa-83c3-ed53051a5c0a}, !- Space Name
  Surface,                                !- Outside Boundary Condition
  {54bb6a3b-0aff-47c2-a4fc-17e1ce803b73}, !- Outside Boundary Condition Object
  NoSun,                                  !- Sun Exposure
  NoWind,                                 !- Wind Exposure
  ,                                       !- View Factor to Ground
  ,                                       !- Number of Vertices
  8.18033988749895, 3, 4,                 !- X,Y,Z Vertex 1 {m}
  8.18033988749895, 3, 0,                 !- X,Y,Z Vertex 2 {m}
  3, 3, 0,                                !- X,Y,Z Vertex 3 {m}
  3, 3, 4;                                !- X,Y,Z Vertex 4 {m}

OS:Surface,
  {de41b732-fc21-4c9e-90e7-6b3845938dab}, !- Handle
  Surface 23,                             !- Name
  Wall,                                   !- Surface Type
  ,                                       !- Construction Name
  {e1407781-ab66-45fa-83c3-ed53051a5c0a}, !- Space Name
  Surface,                                !- Outside Boundary Condition
  {f52a8798-4ade-4e78-a2be-5a697e232dfe}, !- Outside Boundary Condition Object
  NoSun,                                  !- Sun Exposure
  NoWind,                                 !- Wind Exposure
  ,                                       !- View Factor to Ground
  ,                                       !- Number of Vertices
  11.1803398874989, 0, 4,                 !- X,Y,Z Vertex 1 {m}
  11.1803398874989, 0, 0,                 !- X,Y,Z Vertex 2 {m}
  8.18033988749895, 3, 0,                 !- X,Y,Z Vertex 3 {m}
  8.18033988749895, 3, 4;                 !- X,Y,Z Vertex 4 {m}

OS:Surface,
  {f45212bc-e427-4fcf-8a4f-2d2eeeaa3cba}, !- Handle
  Surface 24,                             !- Name
  RoofCeiling,                            !- Surface Type
  ,                                       !- Construction Name
  {e1407781-ab66-45fa-83c3-ed53051a5c0a}, !- Space Name
  Outdoors,                               !- Outside Boundary Condition
  ,                                       !- Outside Boundary Condition Object
  SunExposed,                             !- Sun Exposure
  WindExposed,                            !- Wind Exposure
  ,                                       !- View Factor to Ground
  ,                                       !- Number of Vertices
  8.18033988749895, 3, 4,                 !- X,Y,Z Vertex 1 {m}
  3, 3, 4,                                !- X,Y,Z Vertex 2 {m}
  0, 0, 4,                                !- X,Y,Z Vertex 3 {m}
  11.1803398874989, 0, 4;                 !- X,Y,Z Vertex 4 {m}

OS:Space,
  {a7fcd7c4-0829-4dd3-8002-6b3636a7eef6}, !- Handle
  Story 1 Core Space,                     !- Name
  ,                                       !- Space Type Name
  ,                                       !- Default Construction Set Name
  ,                                       !- Default Schedule Set Name
  -0,                                     !- Direction of Relative North {deg}
  3,                                      !- X Origin {m}
  3,                                      !- Y Origin {m}
  0,                                      !- Z Origin {m}
  {0dabef8f-8b9a-4816-b86d-325c737e94f4}, !- Building Story Name
  {5801b0b5-cc09-40d9-ba58-6cf2c902dbf4}; !- Thermal Zone Name

OS:Surface,
  {d6523397-ea55-4a1a-bc0e-17c6d0c47b78}, !- Handle
  Surface 25,                             !- Name
  Floor,                                  !- Surface Type
  ,                                       !- Construction Name
  {a7fcd7c4-0829-4dd3-8002-6b3636a7eef6}, !- Space Name
  Ground,                                 !- Outside Boundary Condition
  ,                                       !- Outside Boundary Condition Object
  NoSun,                                  !- Sun Exposure
  NoWind,                                 !- Wind Exposure
  ,                                       !- View Factor to Ground
  ,                                       !- Number of Vertices
  0, 0, 0,                                !- X,Y,Z Vertex 1 {m}
  0, 5.18033988749895, 0,                 !- X,Y,Z Vertex 2 {m}
  5.18033988749895, 5.18033988749895, 0,  !- X,Y,Z Vertex 3 {m}
  5.18033988749895, 0, 0;                 !- X,Y,Z Vertex 4 {m}

OS:Surface,
  {ebcd132a-7308-492e-b2b0-d85d40301c74}, !- Handle
  Surface 26,                             !- Name
  Wall,                                   !- Surface Type
  ,                                       !- Construction Name
  {a7fcd7c4-0829-4dd3-8002-6b3636a7eef6}, !- Space Name
  Surface,                                !- Outside Boundary Condition
  {19099d5e-38cf-456c-b694-e7b96f117082}, !- Outside Boundary Condition Object
  NoSun,                                  !- Sun Exposure
  NoWind,                                 !- Wind Exposure
  ,                                       !- View Factor to Ground
  ,                                       !- Number of Vertices
  0, 5.18033988749895, 4,                 !- X,Y,Z Vertex 1 {m}
  0, 5.18033988749895, 0,                 !- X,Y,Z Vertex 2 {m}
  0, 0, 0,                                !- X,Y,Z Vertex 3 {m}
  0, 0, 4;                                !- X,Y,Z Vertex 4 {m}

OS:Surface,
  {9720345b-8d3d-4fc9-831e-4f5f5afe80cf}, !- Handle
  Surface 27,                             !- Name
  Wall,                                   !- Surface Type
  ,                                       !- Construction Name
  {a7fcd7c4-0829-4dd3-8002-6b3636a7eef6}, !- Space Name
  Surface,                                !- Outside Boundary Condition
  {d9286bdc-8ad3-4d15-a014-0a8665c4ab18}, !- Outside Boundary Condition Object
  NoSun,                                  !- Sun Exposure
  NoWind,                                 !- Wind Exposure
  ,                                       !- View Factor to Ground
  ,                                       !- Number of Vertices
  5.18033988749895, 5.18033988749895, 4,  !- X,Y,Z Vertex 1 {m}
  5.18033988749895, 5.18033988749895, 0,  !- X,Y,Z Vertex 2 {m}
  0, 5.18033988749895, 0,                 !- X,Y,Z Vertex 3 {m}
  0, 5.18033988749895, 4;                 !- X,Y,Z Vertex 4 {m}

OS:Surface,
  {23241aac-2733-4377-932f-cf34fe432553}, !- Handle
  Surface 28,                             !- Name
  Wall,                                   !- Surface Type
  ,                                       !- Construction Name