
OS:Version,
  {9c68c106-9b42-471f-93e9-76bed5a630d5}, !- Handle
  0.10.0;                                 !- Version Identifier

OS:BuildingStory,
  {4f47660f-8bc4-4cbf-b17c-c6cdbe0b8005}, !- Handle
  Story 1,                                !- Name
  0,                                      !- Nominal Z Coordinate {m}
  4,                                      !- Nominal Floor to Floor Height {m}
  ,                                       !- Default Construction Set Name
  ,                                       !- Default Schedule Set Name
  ;                                       !- Group Rendering Name

OS:Space,
  {3ae3bbd3-6bdf-4587-8ee9-8086008fb064}, !- Handle
  Story 1 West Perimeter Space,           !- Name
  ,                                       !- Space Type Name
  ,                                       !- Default Construction Set Name
  ,                                       !- Default Schedule Set Name
  -0,                                     !- Direction of Relative North {deg}
  0,                                      !- X Origin {m}
  0,                                      !- Y Origin {m}
  0,                                      !- Z Origin {m}
  {4f47660f-8bc4-4cbf-b17c-c6cdbe0b8005}, !- Building Story Name
  {179fabf3-c60f-47ed-8f93-fb81fdb953f0}; !- Thermal Zone Name

OS:Surface,
  {d96e9ab6-ef69-403c-8bad-5cacb6e11e65}, !- Handle
  Surface 1,                              !- Name
  Floor,                                  !- Surface Type
  ,                                       !- Construction Name
  {3ae3bbd3-6bdf-4587-8ee9-8086008fb064}, !- Space Name
  Ground,                                 !- Outside Boundary Condition
  ,                                       !- Outside Boundary Condition Object
  NoSun,                                  !- Sun Exposure
  NoWind,                                 !- Wind Exposure
  ,                                       !- View Factor to Ground
  ,                                       !- Number of Vertices
  0, 0, 0,                                !- X,Y,Z Vertex 1 {m}
  0, 10, 0,                               !- X,Y,Z Vertex 2 {m}
  3, 7, 0,                                !- X,Y,Z Vertex 3 {m}
  3, 3, 0;                                !- X,Y,Z Vertex 4 {m}

OS:Surface,
  {a166d09f-530c-4517-a254-ec20a9741894}, !- Handle
  Surface 2,                              !- Name
  Wall,                                   !- Surface Type
  ,                                       !- Construction Name
  {3ae3bbd3-6bdf-4587-8ee9-8086008fb064}, !- Space Name
  Outdoors,                               !- Outside Boundary Condition
  ,                                       !- Outside Boundary Condition Object
  SunExposed,                             !- Sun Exposure
  WindExposed,                            !- Wind Exposure
  ,                                       !- View Factor to Ground
  ,                                       !- Number of Vertices
  0, 10, 4,                               !- X,Y,Z Vertex 1 {m}
  0, 10, 0,                               !- X,Y,Z Vertex 2 {m}
  0, 0, 0,                                !- X,Y,Z Vertex 3 {m}
  0, 0, 4;                                !- X,Y,Z Vertex 4 {m}

OS:Surface,
  {8719ffaa-c676-49fa-9b06-205329320e33}, !- Handle
  Surface 3,                              !- Name
  Wall,                                   !- Surface Type
  ,                                       !- Construction Name
  {3ae3bbd3-6bdf-4587-8ee9-8086008fb064}, !- Space Name
  Surface,                                !- Outside Boundary Condition
  {b0551adc-2205-4234-8c87-a9d6c8382040}, !- Outside Boundary Condition Object
  NoSun,                                  !- Sun Exposure
  NoWind,                                 !- Wind Exposure
  ,                                       !- View Factor to Ground
  ,                                       !- Number of Vertices
  3, 7, 4,                                !- X,Y,Z Vertex 1 {m}
  3, 7, 0,                                !- X,Y,Z Vertex 2 {m}
  0, 10, 0,                               !- X,Y,Z Vertex 3 {m}
  0, 10, 4;                               !- X,Y,Z Vertex 4 {m}

OS:Surface,
  {d69e4aa5-56b7-44fc-ac18-df19bcb04d46}, !- Handle
  Surface 4,                              !- Name
  Wall,                                   !- Surface Type
  ,                                       !- Construction Name
  {3ae3bbd3-6bdf-4587-8ee9-8086008fb064}, !- Space Name
  Surface,                                !- Outside Boundary Condition
  {b83c22e7-f3af-4246-862f-8fec56445274}, !- Outside Boundary Condition Object
  NoSun,                                  !- Sun Exposure
  NoWind,                                 !- Wind Exposure
  ,                                       !- View Factor to Ground
  ,                                       !- Number of Vertices
  3, 3, 4,                                !- X,Y,Z Vertex 1 {m}
  3, 3, 0,                                !- X,Y,Z Vertex 2 {m}
  3, 7, 0,                                !- X,Y,Z Vertex 3 {m}
  3, 7, 4;                                !- X,Y,Z Vertex 4 {m}

OS:Surface,
  {73d44089-2993-466e-b5ca-43d7c671a7f0}, !- Handle
  Surface 5,                              !- Name
  Wall,                                   !- Surface Type
  ,                                       !- Construction Name
  {3ae3bbd3-6bdf-4587-8ee9-8086008fb064}, !- Space Name
  Surface,                                !- Outside Boundary Condition
  {8163b7d0-2e3b-4364-bbbc-03ea039d7a0f}, !- Outside Boundary Condition Object
  NoSun,                                  !- Sun Exposure
  NoWind,                                 !- Wind Exposure
  ,                                       !- View Factor to Ground
  ,                                       !- Number of Vertices
  0, 0, 4,                                !- X,Y,Z Vertex 1 {m}
  0, 0, 0,                                !- X,Y,Z Vertex 2 {m}
  3, 3, 0,                                !- X,Y,Z Vertex 3 {m}
  3, 3, 4;                                !- X,Y,Z Vertex 4 {m}

OS:Surface,
  {72399f8c-23b2-420c-8c60-0e5b4d44ef67}, !- Handle
  Surface 6,                              !- Name
  RoofCeiling,                            !- Surface Type
  ,                                       !- Construction Name
  {3ae3bbd3-6bdf-4587-8ee9-8086008fb064}, !- Space Name
  Surface,                                !- Outside Boundary Condition
  {407f37ab-0a60-47b0-ade8-8d3fe23c4254}, !- Outside Boundary Condition Object
  NoSun,                                  !- Sun Exposure
  NoWind,                                 !- Wind Exposure
  ,                                       !- View Factor to Ground
  ,                                       !- Number of Vertices
  3, 3, 4,                                !- X,Y,Z Vertex 1 {m}
  3, 7, 4,                                !- X,Y,Z Vertex 2 {m}
  0, 10, 4,                               !- X,Y,Z Vertex 3 {m}
  0, 0, 4;                                !- X,Y,Z Vertex 4 {m}

OS:Space,
  {54fd27e9-839f-4a20-a1a5-beac3226a618}, !- Handle
  Story 1 North Perimeter Space,          !- Name
  ,                                       !- Space Type Name
  ,                                       !- Default Construction Set Name
  ,                                       !- Default Schedule Set Name
  -0,                                     !- Direction of Relative North {deg}
  3,                                      !- X Origin {m}
  7,                                      !- Y Origin {m}
  0,                                      !- Z Origin {m}
  {4f47660f-8bc4-4cbf-b17c-c6cdbe0b8005}, !- Building Story Name
  {5390e61d-14b2-48a1-bf4d-ff2c9d3adc48}; !- Thermal Zone Name

OS:Surface,
  {80287817-b19e-4c7e-ab64-47768644de64}, !- Handle
  Surface 7,                              !- Name
  Floor,                                  !- Surface Type
  ,                                       !- Construction Name
  {54fd27e9-839f-4a20-a1a5-beac3226a618}, !- Space Name
  Ground,                                 !- Outside Boundary Condition
  ,                                       !- Outside Boundary Condition Object
  NoSun,                                  !- Sun Exposure
  NoWind,                                 !- Wind Exposure
  ,                                       !- View Factor to Ground
  ,                                       !- Number of Vertices
  -3, 3, 0,                               !- X,Y,Z Vertex 1 {m}
  7, 3, 0,                                !- X,Y,Z Vertex 2 {m}
  4, 0, 0,                                !- X,Y,Z Vertex 3 {m}
  0, 0, 0;                                !- X,Y,Z Vertex 4 {m}

OS:Surface,
  {8b94e181-f361-477a-8a6e-205df301087b}, !- Handle
  Surface 8,                              !- Name
  Wall,                                   !- Surface Type
  ,                                       !- Construction Name
  {54fd27e9-839f-4a20-a1a5-beac3226a618}, !- Space Name
  Outdoors,                               !- Outside Boundary Condition
  ,                                       !- Outside Boundary Condition Object
  SunExposed,                             !- Sun Exposure
  WindExposed,                            !- Wind Exposure
  ,                                       !- View Factor to Ground
  ,                                       !- Number of Vertices
  7, 3, 4,                                !- X,Y,Z Vertex 1 {m}
  7, 3, 0,                                !- X,Y,Z Vertex 2 {m}
  -3, 3, 0,                               !- X,Y,Z Vertex 3 {m}
  -3, 3, 4;                               !- X,Y,Z Vertex 4 {m}

OS:Surface,
  {c4644400-7c26-4ecd-b681-ec6a40a250b0}, !- Handle
  Surface 9,                              !- Name
  Wall,                                   !- Surface Type
  ,                                       !- Construction Name
  {54fd27e9-839f-4a20-a1a5-beac3226a618}, !- Space Name
  Surface,                                !- Outside Boundary Condition
  {8fac685c-d234-420d-948b-b2ff3e4f35b1}, !- Outside Boundary Condition Object
  NoSun,                                  !- Sun Exposure
  NoWind,                                 !- Wind Exposure
  ,                                       !- View Factor to Ground
  ,                                       !- Number of Vertices
  4, 0, 4,                                !- X,Y,Z Vertex 1 {m}
  4, 0, 0,                                !- X,Y,Z Vertex 2 {m}
  7, 3, 0,                                !- X,Y,Z Vertex 3 {m}
  7, 3, 4;                                !- X,Y,Z Vertex 4 {m}

OS:Surface,
  {ef1d9c4a-b44c-4665-9eb0-ee8db5919adc}, !- Handle
  Surface 10,                             !- Name
  Wall,                                   !- Surface Type
  ,                                       !- Construction Name
  {54fd27e9-839f-4a20-a1a5-beac3226a618}, !- Space Name
  Surface,                                !- Outside Boundary Condition
  {44efd600-f138-4661-b35d-540fcabaf201}, !- Outside Boundary Condition Object
  NoSun,                                  !- Sun Exposure
  NoWind,                                 !- Wind Exposure
  ,                                       !- View Factor to Ground
  ,                                       !- Number of Vertices
  0, 0, 4,                                !- X,Y,Z Vertex 1 {m}
  0, 0, 0,                                !- X,Y,Z Vertex 2 {m}
  4, 0, 0,                                !- X,Y,Z Vertex 3 {m}
  4, 0, 4;                                !- X,Y,Z Vertex 4 {m}

OS:Surface,
  {b0551adc-2205-4234-8c87-a9d6c8382040}, !- Handle
  Surface 11,                             !- Name
  Wall,                                   !- Surface Type
  ,                                       !- Construction Name
  {54fd27e9-839f-4a20-a1a5-beac3226a618}, !- Space Name
  Surface,                                !- Outside Boundary Condition
  {8719ffaa-c676-49fa-9b06-205329320e33}, !- Outside Boundary Condition Object
  NoSun,                                  !- Sun Exposure
  NoWind,                                 !- Wind Exposure
  ,                                       !- View Factor to Ground
  ,                                       !- Number of Vertices
  -3, 3, 4,                               !- X,Y,Z Vertex 1 {m}
  -3, 3, 0,                               !- X,Y,Z Vertex 2 {m}
  0, 0, 0,                                !- X,Y,Z Vertex 3 {m}
  0, 0, 4;                                !- X,Y,Z Vertex 4 {m}

OS:Surface,
  {880317e5-d9a3-427e-b880-0797b7bef8d2}, !- Handle
  Surface 12,                             !- Name
  RoofCeiling,                            !- Surface Type
  ,                                       !- Construction Name
  {54fd27e9-839f-4a20-a1a5-beac3226a618}, !- Space Name
  Surface,                                !- Outside Boundary Condition
  {be17d1c9-f426-406c-a2aa-9c1aedd6d603}, !- Outside Boundary Condition Object
  NoSun,                                  !- Sun Exposure
  NoWind,                                 !- Wind Exposure
  ,                                       !- View Factor to Ground
  ,                                       !- Number of Vertices
  0, 0, 4,                                !- X,Y,Z Vertex 1 {m}
  4, 0, 4,                                !- X,Y,Z Vertex 2 {m}
  7, 3, 4,                                !- X,Y,Z Vertex 3 {m}
  -3, 3, 4;                               !- X,Y,Z Vertex 4 {m}

OS:Space,
  {f9221474-a110-4040-acb3-a8a18b750dbb}, !- Handle
  Story 1 East Perimeter Space,           !- Name
  ,                                       !- Space Type Name
  ,                                       !- Default Construction Set Name
  ,                                       !- Default Schedule Set Name
  -0,                                     !- Direction of Relative North {deg}
  7,                                      !- X Origin {m}
  3,                                      !- Y Origin {m}
  0,                                      !- Z Origin {m}
  {4f47660f-8bc4-4cbf-b17c-c6cdbe0b8005}, !- Building Story Name
  {209a452d-3325-4659-9969-594c31b68bde}; !- Thermal Zone Name

OS:Surface,
  {25aca568-e9da-4b08-b8cc-3e35c713c847}, !- Handle
  Surface 13,                             !- Name
  Floor,                                  !- Surface Type
  ,                                       !- Construction Name
  {f9221474-a110-4040-acb3-a8a18b750dbb}, !- Space Name
  Ground,                                 !- Outside Boundary Condition
  ,                                       !- Outside Boundary Condition Object
  NoSun,                                  !- Sun Exposure
  NoWind,                                 !- Wind Exposure
  ,                                       !- View Factor to Ground
  ,                                       !- Number of Vertices
  3, 7, 0,                                !- X,Y,Z Vertex 1 {m}
  3, -3, 0,                               !- X,Y,Z Vertex 2 {m}
  0, 0, 0,                                !- X,Y,Z Vertex 3 {m}
  0, 4, 0;                                !- X,Y,Z Vertex 4 {m}

OS:Surface,
  {eb3d65e7-5a05-4476-b126-b7ffa9ed0f47}, !- Handle
  Surface 14,                             !- Name
  Wall,                                   !- Surface Type
  ,                                       !- Construction Name
  {f9221474-a110-4040-acb3-a8a18b750dbb}, !- Space Name
  Outdoors,                               !- Outside Boundary Condition
  ,                                       !- Outside Boundary Condition Object
  SunExposed,                             !- Sun Exposure
  WindExposed,                            !- Wind Exposure
  ,                                       !- View Factor to Ground
  ,                                       !- Number of Vertices
  3, -3, 4,                               !- X,Y,Z Vertex 1 {m}
  3, -3, 0,                               !- X,Y,Z Vertex 2 {m}
  3, 7, 0,                                !- X,Y,Z Vertex 3 {m}
  3, 7, 4;                                !- X,Y,Z Vertex 4 {m}

OS:Surface,
  {4ea775e4-c888-4fef-b272-9fc6232243cd}, !- Handle
  Surface 15,                             !- Name
  Wall,                                   !- Surface Type
  ,                                       !- Construction Name
  {f9221474-a110-4040-acb3-a8a18b750dbb}, !- Space Name
  Surface,                                !- Outside Boundary Condition
  {05974ca2-1db1-431c-98c6-42da1799e6b8}, !- Outside Boundary Condition Object
  NoSun,                                  !- Sun Exposure
  NoWind,                                 !- Wind Exposure
  ,                                       !- View Factor to Ground
  ,                                       !- Number of Vertices
  0, 0, 4,                                !- X,Y,Z Vertex 1 {m}
  0, 0, 0,                                !- X,Y,Z Vertex 2 {m}
  3, -3, 0,                               !- X,Y,Z Vertex 3 {m}
  3, -3, 4;                               !- X,Y,Z Vertex 4 {m}

OS:Surface,
  {26cdb3a5-2e66-4397-8c69-051a9d318320}, !- Handle
  Surface 16,                             !- Name
  Wall,                                   !- Surface Type
  ,                                       !- Construction Name
  {f9221474-a110-4040-acb3-a8a18b750dbb}, !- Space Name
  Surface,                                !- Outside Boundary Condition
  {9b2fcb57-b735-4e0d-a368-781f6b154083}, !- Outside Boundary Condition Object
  NoSun,                                  !- Sun Exposure
  NoWind,                                 !- Wind Exposure
  ,                                       !- View Factor to Ground
  ,                                       !- Number of Vertices
  0, 4, 4,                                !- X,Y,Z Vertex 1 {m}
  0, 4, 0,                                !- X,Y,Z Vertex 2 {m}
  0, 0, 0,                                !- X,Y,Z Vertex 3 {m}
  0, 0, 4;                                !- X,Y,Z Vertex 4 {m}

OS:Surface,
  {8fac685c-d234-420d-948b-b2ff3e4f35b1}, !- Handle
  Surface 17,                             !- Name
  Wall,                                   !- Surface Type
  ,                                       !- Construction Name
  {f9221474-a110-4040-acb3-a8a18b750dbb}, !- Space Name
  Surface,                                !- Outside Boundary Condition
  {c4644400-7c26-4ecd-b681-ec6a40a250b0}, !- Outside Boundary Condition Object
  NoSun,                                  !- Sun Exposure
  NoWind,                                 !- Wind Exposure
  ,                                       !- View Factor to Ground
  ,                                       !- Number of Vertices
  3, 7, 4,                                !- X,Y,Z Vertex 1 {m}
  3, 7, 0,                                !- X,Y,Z Vertex 2 {m}
  0, 4, 0,                                !- X,Y,Z Vertex 3 {m}
  0, 4, 4;                                !- X,Y,Z Vertex 4 {m}

OS:Surface,
  {4bc08cca-3499-4cda-b455-463b807ceb1a}, !- Handle
  Surface 18,                             !- Name
  RoofCeiling,                            !- Surface Type
  ,                                       !- Construction Name
  {f9221474-a110-4040-acb3-a8a18b750dbb}, !- Space Name
  Surface,                                !- Outside Boundary Condition
  {6550e3e2-6fee-4a76-934b-710be3ed7ca7}, !- Outside Boundary Condition Object
  NoSun,                                  !- Sun Exposure
  NoWind,                                 !- Wind Exposure
  ,                                       !- View Factor to Ground
  ,                                       !- Number of Vertices
  0, 4, 4,                                !- X,Y,Z Vertex 1 {m}
  0, 0, 4,                                !- X,Y,Z Vertex 2 {m}
  3, -3, 4,                               !- X,Y,Z Vertex 3 {m}
  3, 7, 4;                                !- X,Y,Z Vertex 4 {m}

OS:Space,
  {2b5b7d09-63ed-4c6b-b191-071826b0b60a}, !- Handle
  Story 1 South Perimeter Space,          !- Name
  ,                                       !- Space Type Name
  ,                                       !- Default Construction Set Name
  ,                                       !- Default Schedule Set Name
  -0,                                     !- Direction of Relative North {deg}
  0,                                      !- X Origin {m}
  0,                                      !- Y Origin {m}
  0,                                      !- Z Origin {m}
  {4f47660f-8bc4-4cbf-b17c-c6cdbe0b8005}, !- Building Story Name
  {5b292383-9182-4ef0-bd0a-ed00b228b465}; !- Thermal Zone Name

OS:Surface,
  {e3f2a544-b6f2-4275-8e18-3076d992ef88}, !- Handle
  Surface 19,                             !- Name
  Floor,                                  !- Surface Type
  ,                                       !- Construction Name
  {2b5b7d09-63ed-4c6b-b191-071826b0b60a}, !- Space Name
  Ground,                                 !- Outside Boundary Condition
  ,                                       !- Outside Boundary Condition Object
  NoSun,                                  !- Sun Exposure
  NoWind,                                 !- Wind Exposure
  ,                                       !- View Factor to Ground
  ,                                       !- Number of Vertices
  10, 0, 0,                               !- X,Y,Z Vertex 1 {m}
  0, 0, 0,                                !- X,Y,Z Vertex 2 {m}
  3, 3, 0,                                !- X,Y,Z Vertex 3 {m}
  7, 3, 0;                                !- X,Y,Z Vertex 4 {m}

OS:Surface,
  {1df4c615-fb04-4e35-ad78-b53bc7d06fd4}, !- Handle
  Surface 20,                             !- Name
  Wall,                                   !- Surface Type
  ,                                       !- Construction Name
  {2b5b7d09-63ed-4c6b-b191-071826b0b60a}, !- Space Name
  Outdoors,                               !- Outside Boundary Condition
  ,                                       !- Outside Boundary Condition Object
  SunExposed,                             !- Sun Exposure
  WindExposed,                            !- Wind Exposure
  ,                                       !- View Factor to Ground
  ,                                       !- Number of Vertices
  0, 0, 4,                                !- X,Y,Z Vertex 1 {m}
  0, 0, 0,                                !- X,Y,Z Vertex 2 {m}
  10, 0, 0,                               !- X,Y,Z Vertex 3 {m}
  10, 0, 4;                               !- X,Y,Z Vertex 4 {m}

OS:Surface,
  {8163b7d0-2e3b-4364-bbbc-03ea039d7a0f}, !- Handle
  Surface 21,                             !- Name
  Wall,                                   !- Surface Type
  ,                                       !- Construction Name
  {2b5b7d09-63ed-4c6b-b191-071826b0b60a}, !- Space Name
  Surface,                                !- Outside Boundary Condition
  {73d44089-2993-466e-b5ca-43d7c671a7f0}, !- Outside Boundary Condition Object
  NoSun,                                  !- Sun Exposure
  NoWind,                                 !- Wind Exposure
  ,                                       !- View Factor to Ground
  ,                                       !- Number of Vertices
  3, 3, 4,                                !- X,Y,Z Vertex 1 {m}
  3, 3, 0,                                !- X,Y,Z Vertex 2 {m}
  0, 0, 0,                                !- X,Y,Z Vertex 3 {m}
  0, 0, 4;                                !- X,Y,Z Vertex 4 {m}

OS:Surface,
  {ffec1a6e-45b9-490d-89c5-470122718afc}, !- Handle
  Surface 22,                             !- Name
  Wall,                                   !- Surface Type
  ,                                       !- Construction Name
  {2b5b7d09-63ed-4c6b-b191-071826b0b60a}, !- Space Name
  Surface,                                !- Outside Boundary Condition
  {9b966ca3-2fe8-46a7-9c6c-3ffbb6165615}, !- Outside Boundary Condition Object
  NoSun,                                  !- Sun Exposure
  NoWind,                                 !- Wind Exposure
  ,                                       !- View Factor to Ground
  ,                                       !- Number of Vertices
  7, 3, 4,                                !- X,Y,Z Vertex 1 {m}
  7, 3, 0,                                !- X,Y,Z Vertex 2 {m}
  3, 3, 0,                                !- X,Y,Z Vertex 3 {m}
  3, 3, 4;                                !- X,Y,Z Vertex 4 {m}

OS:Surface,
  {05974ca2-1db1-431c-98c6-42da1799e6b8}, !- Handle
  Surface 23,                             !- Name
  Wall,                                   !- Surface Type
  ,                                       !- Construction Name
  {2b5b7d09-63ed-4c6b-b191-071826b0b60a}, !- Space Name
  Surface,                                !- Outside Boundary Condition
  {4ea775e4-c888-4fef-b272-9fc6232243cd}, !- Outside Boundary Condition Object
  NoSun,                                  !- Sun Exposure
  NoWind,                                 !- Wind Exposure
  ,                                       !- View Factor to Ground
  ,                                       !- Number of Vertices
  10, 0, 4,                               !- X,Y,Z Vertex 1 {m}
  10, 0, 0,                               !- X,Y,Z Vertex 2 {m}
  7, 3, 0,                                !- X,Y,Z Vertex 3 {m}
  7, 3, 4;                                !- X,Y,Z Vertex 4 {m}

OS:Surface,
  {6695bbc7-2b11-4022-8d5d-7361ac5613dd}, !- Handle
  Surface 24,                             !- Name
  RoofCeiling,                            !- Surface Type
  ,                                       !- Construction Name
  {2b5b7d09-63ed-4c6b-b191-071826b0b60a}, !- Space Name
  Surface,                                !- Outside Boundary Condition
  {830a9024-5e2d-44d2-8fb4-9e3e80efaa34}, !- Outside Boundary Condition Object
  NoSun,                                  !- Sun Exposure
  NoWind,                                 !- Wind Exposure
  ,                                       !- View Factor to Ground
  ,                                       !- Number of Vertices
  7, 3, 4,                                !- X,Y,Z Vertex 1 {m}
  3, 3, 4,                                !- X,Y,Z Vertex 2 {m}
  0, 0, 4,                                !- X,Y,Z Vertex 3 {m}
  10, 0, 4;                               !- X,Y,Z Vertex 4 {m}

OS:Space,
  {5dc5e374-1069-407e-afe4-4ca409445c35}, !- Handle
  Story 1 Core Space,                     !- Name
  ,                                       !- Space Type Name
  ,                                       !- Default Construction Set Name
  ,                                       !- Default Schedule Set Name
  -0,                                     !- Direction of Relative North {deg}
  3,                                      !- X Origin {m}
  3,                                      !- Y Origin {m}
  0,                                      !- Z Origin {m}
  {4f47660f-8bc4-4cbf-b17c-c6cdbe0b8005}, !- Building Story Name
  {3efc1fbe-ee9d-43f7-a361-844e3b6ac938}; !- Thermal Zone Name

OS:Surface,
  {b6b69e90-a382-4888-b6a6-f9abe6007b78}, !- Handle
  Surface 25,                             !- Name
  Floor,                                  !- Surface Type
  ,                                       !- Construction Name
  {5dc5e374-1069-407e-afe4-4ca409445c35}, !- Space Name
  Ground,                                 !- Outside Boundary Condition
  ,                                       !- Outside Boundary Condition Object
  NoSun,                                  !- Sun Exposure
  NoWind,                                 !- Wind Exposure
  ,                                       !- View Factor to Ground
  ,                                       !- Number of Vertices
  0, 0, 0,                                !- X,Y,Z Vertex 1 {m}
  0, 4, 0,                                !- X,Y,Z Vertex 2 {m}
  4, 4, 0,                                !- X,Y,Z Vertex 3 {m}
  4, 0, 0;                                !- X,Y,Z Vertex 4 {m}

OS:Surface,
  {b83c22e7-f3af-4246-862f-8fec56445274}, !- Handle
  Surface 26,                             !- Name
  Wall,                                   !- Surface Type
  ,                                       !- Construction Name
  {5dc5e374-1069-407e-afe4-4ca409445c35}, !- Space Name
  Surface,                                !- Outside Boundary Condition
  {d69e4aa5-56b7-44fc-ac18-df19bcb04d46}, !- Outside Boundary Condition Object
  NoSun,                                  !- Sun Exposure
  NoWind,                                 !- Wind Exposure
  ,                                       !- View Factor to Ground
  ,                                       !- Number of Vertices
  0, 4, 4,                                !- X,Y,Z Vertex 1 {m}
  0, 4, 0,                                !- X,Y,Z Vertex 2 {m}
  0, 0, 0,                                !- X,Y,Z Vertex 3 {m}
  0, 0, 4;                                !- X,Y,Z Vertex 4 {m}

OS:Surface,
  {44efd600-f138-4661-b35d-540fcabaf201}, !- Handle
  Surface 27,                             !- Name
  Wall,                                   !- Surface Type
  ,                                       !- Construction Name
  {5dc5e374-1069-407e-afe4-4ca409445c35}, !- Space Name
  Surface,                                !- Outside Boundary Condition
  {ef1d9c4a-b44c-4665-9eb0-ee8db5919adc}, !- Outside Boundary Condition Object
  NoSun,                                  !- Sun Exposure
  NoWind,                                 !- Wind Exposure
  ,                                       !- View Factor to Ground
  ,                                       !- Number of Vertices
  4, 4, 4,                                !- X,Y,Z Vertex 1 {m}
  4, 4, 0,                                !- X,Y,Z Vertex 2 {m}
  0, 4, 0,                                !- X,Y,Z Vertex 3 {m}
  0, 4, 4;                                !- X,Y,Z Vertex 4 {m}

OS:Surface,
  {9b2fcb57-b735-4e0d-a368-781f6b154083}, !- Handle
  Surface 28,                             !- Name
  Wall,                                   !- Surface Type
  ,                                       !- Construction Name
  {5dc5e374-1069-407e-afe4-4ca409445c35}, !- Space Name