
OS:Version,
  {4524ff0f-2535-4006-8eca-5e980fe0729f}, !- Handle
  0.10.0;                                 !- Version Identifier

OS:BuildingStory,
  {a1f51ae3-0ccf-409f-bf24-d6079b8db2b8}, !- Handle
  Story 1,                                !- Name
  0,                                      !- Nominal Z Coordinate {m}
  4,                                      !- Nominal Floor to Floor Height {m}
  ,                                       !- Default Construction Set Name
  ,                                       !- Default Schedule Set Name
  ;                                       !- Group Rendering Name

OS:Space,
  {d4176ad2-c618-4646-976b-bbf508807167}, !- Handle
  Story 1 West Perimeter Space,           !- Name
  ,                                       !- Space Type Name
  ,                                       !- Default Construction Set Name
  ,                                       !- Default Schedule Set Name
  -0,                                     !- Direction of Relative North {deg}
  0,                                      !- X Origin {m}
  0,                                      !- Y Origin {m}
  0,                                      !- Z Origin {m}
  {a1f51ae3-0ccf-409f-bf24-d6079b8db2b8}, !- Building Story Name
  {67a263c8-309b-4f82-bd08-b3eb25d12b2d}; !- Thermal Zone Name

OS:Surface,
  {19fded3e-6fb9-4e9a-948a-e70155544f3d}, !- Handle
  Surface 1,                              !- Name
  Floor,                                  !- Surface Type
  ,                                       !- Construction Name
  {d4176ad2-c618-4646-976b-bbf508807167}, !- Space Name
  Ground,                                 !- Outside Boundary Condition
  ,                                       !- Outside Boundary Condition Object
  NoSun,                                  !- Sun Exposure
  NoWind,                                 !- Wind Exposure
  ,                                       !- View Factor to Ground
  ,                                       !- Number of Vertices
  0, 0, 0,                                !- X,Y,Z Vertex 1 {m}
  0, 50, 0,                               !- X,Y,Z Vertex 2 {m}
  3, 47, 0,                               !- X,Y,Z Vertex 3 {m}
  3, 3, 0;                                !- X,Y,Z Vertex 4 {m}

OS:Surface,
  {41f35cb5-7461-495f-91b5-1b925973b034}, !- Handle
  Surface 2,                              !- Name
  Wall,                                   !- Surface Type
  ,                                       !- Construction Name
  {d4176ad2-c618-4646-976b-bbf508807167}, !- Space Name
  Outdoors,                               !- Outside Boundary Condition
  ,                                       !- Outside Boundary Condition Object
  SunExposed,                             !- Sun Exposure
  WindExposed,                            !- Wind Exposure
  ,                                       !- View Factor to Ground
  ,                                       !- Number of Vertices
  0, 50, 4,                               !- X,Y,Z Vertex 1 {m}
  0, 50, 0,                               !- X,Y,Z Vertex 2 {m}
  0, 0, 0,                                !- X,Y,Z Vertex 3 {m}
  0, 0, 4;                                !- X,Y,Z Vertex 4 {m}

OS:Surface,
  {7aeeea03-a452-4ed5-85b3-fc76f733ff1c}, !- Handle
  Surface 3,                              !- Name
  Wall,                                   !- Surface Type
  ,                                       !- Construction Name
  {d4176ad2-c618-4646-976b-bbf508807167}, !- Space Name
  Surface,                                !- Outside Boundary Condition
  {61c73768-b1b8-4dda-b7ac-164bc1c6df3a}, !- Outside Boundary Condition Object
  NoSun,                                  !- Sun Exposure
  NoWind,                                 !- Wind Exposure
  ,                                       !- View Factor to Ground
  ,                                       !- Number of Vertices
  3, 47, 4,                               !- X,Y,Z Vertex 1 {m}
  3, 47, 0,                               !- X,Y,Z Vertex 2 {m}
  0, 50, 0,                               !- X,Y,Z Vertex 3 {m}
  0, 50, 4;                               !- X,Y,Z Vertex 4 {m}

OS:Surface,
  {f4cbae10-8b10-40c2-b4af-a758c6543745}, !- Handle
  Surface 4,                              !- Name
  Wall,                                   !- Surface Type
  ,                                       !- Construction Name
  {d4176ad2-c618-4646-976b-bbf508807167}, !- Space Name
  Surface,                                !- Outside Boundary Condition
  {45a88dbc-1a4d-42f5-9db2-9e36b7f4b490}, !- Outside Boundary Condition Object
  NoSun,                                  !- Sun Exposure
  NoWind,                                 !- Wind Exposure
  ,                                       !- View Factor to Ground
  ,                                       !- Number of Vertices
  3, 3, 4,                                !- X,Y,Z Vertex 1 {m}
  3, 3, 0,                                !- X,Y,Z Vertex 2 {m}
  3, 47, 0,                               !- X,Y,Z Vertex 3 {m}
  3, 47, 4;                               !- X,Y,Z Vertex 4 {m}

OS:Surface,
  {c54ea69f-854f-4ed8-8c04-70d26c16b952}, !- Handle
  Surface 5,                              !- Name
  Wall,                                   !- Surface Type
  ,                                       !- Construction Name
  {d4176ad2-c618-4646-976b-bbf508807167}, !- Space Name
  Surface,                                !- Outside Boundary Condition
  {5c00ea07-26ff-4dff-a14b-fbe1802682f6}, !- Outside Boundary Condition Object
  NoSun,                                  !- Sun Exposure
  NoWind,                                 !- Wind Exposure
  ,                                       !- View Factor to Ground
  ,                                       !- Number of Vertices
  0, 0, 4,                                !- X,Y,Z Vertex 1 {m}
  0, 0, 0,                                !- X,Y,Z Vertex 2 {m}
  3, 3, 0,                                !- X,Y,Z Vertex 3 {m}
  3, 3, 4;                                !- X,Y,Z Vertex 4 {m}

OS:Surface,
  {33f2b30e-ea79-43a6-b3c5-afb015ac0e06}, !- Handle
  Surface 6,                              !- Name
  RoofCeiling,                            !- Surface Type
  ,                                       !- Construction Name
  {d4176ad2-c618-4646-976b-bbf508807167}, !- Space Name
  Surface,                                !- Outside Boundary Condition
  {f830862c-8d53-4a04-b9c2-7df4cd7cc309}, !- Outside Boundary Condition Object
  NoSun,                                  !- Sun Exposure
  NoWind,                                 !- Wind Exposure
  ,                                       !- View Factor to Ground
  ,                                       !- Number of Vertices
  3, 3, 4,                                !- X,Y,Z Vertex 1 {m}
  3, 47, 4,                               !- X,Y,Z Vertex 2 {m}
  0, 50, 4,                               !- X,Y,Z Vertex 3 {m}
  0, 0, 4;                                !- X,Y,Z Vertex 4 {m}

OS:Space,
  {274fe08d-59c6-4ba8-a058-d968a4526925}, !- Handle
  Story 1 North Perimeter Space,          !- Name
  ,                                       !- Space Type Name
  ,                                       !- Default Construction Set Name
  ,                                       !- Default Schedule Set Name
  -0,                                     !- Direction of Relative North {deg}
  3,                                      !- X Origin {m}
  47,                                     !- Y Origin {m}
  0,                                      !- Z Origin {m}
  {a1f51ae3-0ccf-409f-bf24-d6079b8db2b8}, !- Building Story Name
  {d49c687b-51c9-4003-aafc-3e2906fdbb9d}; !- Thermal Zone Name

OS:Surface,
  {ce5f06c4-85dc-4b20-927b-5df484290c5c}, !- Handle
  Surface 7,                              !- Name
  Floor,                                  !- Surface Type
  ,                                       !- Construction Name
  {274fe08d-59c6-4ba8-a058-d968a4526925}, !- Space Name
  Ground,                                 !- Outside Boundary Condition
  ,                                       !- Outside Boundary Condition Object
  NoSun,                                  !- Sun Exposure
  NoWind,                                 !- Wind Exposure
  ,                                       !- View Factor to Ground
  ,                                       !- Number of Vertices
  -3, 3, 0,                               !- X,Y,Z Vertex 1 {m}
  47, 3, 0,                               !- X,Y,Z Vertex 2 {m}
  44, 0, 0,                               !- X,Y,Z Vertex 3 {m}
  0, 0, 0;                                !- X,Y,Z Vertex 4 {m}

OS:Surface,
  {025be156-79f5-4b08-8091-eca284409df8}, !- Handle
  Surface 8,                              !- Name
  Wall,                                   !- Surface Type
  ,                                       !- Construction Name
  {274fe08d-59c6-4ba8-a058-d968a4526925}, !- Space Name
  Outdoors,                               !- Outside Boundary Condition
  ,                                       !- Outside Boundary Condition Object
  SunExposed,                             !- Sun Exposure
  WindExposed,                            !- Wind Exposure
  ,                                       !- View Factor to Ground
  ,                                       !- Number of Vertices
  47, 3, 4,                               !- X,Y,Z Vertex 1 {m}
  47, 3, 0,                               !- X,Y,Z Vertex 2 {m}
  -3, 3, 0,                               !- X,Y,Z Vertex 3 {m}
  -3, 3, 4;                               !- X,Y,Z Vertex 4 {m}

OS:Surface,
  {19c612ad-4a0e-46df-b8b0-23f3e87c4993}, !- Handle
  Surface 9,                              !- Name
  Wall,                                   !- Surface Type
  ,                                       !- Construction Name
  {274fe08d-59c6-4ba8-a058-d968a4526925}, !- Space Name
  Surface,                                !- Outside Boundary Condition
  {0d181816-b6fa-4247-8e58-32f2c9265229}, !- Outside Boundary Condition Object
  NoSun,                                  !- Sun Exposure
  NoWind,                                 !- Wind Exposure
  ,                                       !- View Factor to Ground
  ,                                       !- Number of Vertices
  44, 0, 4,                               !- X,Y,Z Vertex 1 {m}
  44, 0, 0,                               !- X,Y,Z Vertex 2 {m}
  47, 3, 0,                               !- X,Y,Z Vertex 3 {m}
  47, 3, 4;                               !- X,Y,Z Vertex 4 {m}

OS:Surface,
  {e090dd05-015c-4033-8e5a-604b7f53a2ca}, !- Handle
  Surface 10,                             !- Name
  Wall,                                   !- Surface Type
  ,                                       !- Construction Name
  {274fe08d-59c6-4ba8-a058-d968a4526925}, !- Space Name
  Surface,                                !- Outside Boundary Condition
  {3965847c-3ded-4099-bd49-a77f9aa685df}, !- Outside Boundary Condition Object
  NoSun,                                  !- Sun Exposure
  NoWind,                                 !- Wind Exposure
  ,                                       !- View Factor to Ground
  ,                                       !- Number of Vertices
  0, 0, 4,                                !- X,Y,Z Vertex 1 {m}
  0, 0, 0,                                !- X,Y,Z Vertex 2 {m}
  44, 0, 0,                               !- X,Y,Z Vertex 3 {m}
  44, 0, 4;                               !- X,Y,Z Vertex 4 {m}

OS:Surface,
  {61c73768-b1b8-4dda-b7ac-164bc1c6df3a}, !- Handle
  Surface 11,                             !- Name
  Wall,                                   !- Surface Type
  ,                                       !- Construction Name
  {274fe08d-59c6-4ba8-a058-d968a4526925}, !- Space Name
  Surface,                                !- Outside Boundary Condition
  {7aeeea03-a452-4ed5-85b3-fc76f733ff1c}, !- Outside Boundary Condition Object
  NoSun,                                  !- Sun Exposure
  NoWind,                                 !- Wind Exposure
  ,                                       !- View Factor to Ground
  ,                                       !- Number of Vertices
  -3, 3, 4,                               !- X,Y,Z Vertex 1 {m}
  -3, 3, 0,                               !- X,Y,Z Vertex 2 {m}
  0, 0, 0,                                !- X,Y,Z Vertex 3 {m}
  0, 0, 4;                                !- X,Y,Z Vertex 4 {m}

OS:Surface,
  {72e83bee-4c53-40b6-b84b-e60f4b64f55d}, !- Handle
  Surface 12,                             !- Name
  RoofCeiling,                            !- Surface Type
  ,                                       !- Construction Name
  {274fe08d-59c6-4ba8-a058-d968a4526925}, !- Space Name
  Surface,                                !- Outside Boundary Condition
  {0b70cebd-d8ac-4be2-aed2-394d75c3d864}, !- Outside Boundary Condition Object
  NoSun,                                  !- Sun Exposure
  NoWind,                                 !- Wind Exposure
  ,                                       !- View Factor to Ground
  ,                                       !- Number of Vertices
  0, 0, 4,                                !- X,Y,Z Vertex 1 {m}
  44, 0, 4,                               !- X,Y,Z Vertex 2 {m}
  47, 3, 4,                               !- X,Y,Z Vertex 3 {m}
  -3, 3, 4;                               !- X,Y,Z Vertex 4 {m}

OS:Space,
  {7fe65526-77a7-4e71-aabf-b4fc8d929592}, !- Handle
  Story 1 East Perimeter Space,           !- Name
  ,                                       !- Space Type Name
  ,                                       !- Default Construction Set Name
  ,                                       !- Default Schedule Set Name
  -0,                                     !- Direction of Relative North {deg}
  47,                                     !- X Origin {m}
  3,                                      !- Y Origin {m}
  0,                                      !- Z Origin {m}
  {a1f51ae3-0ccf-409f-bf24-d6079b8db2b8}, !- Building Story Name
  {e2ec06ec-ad36-4878-8ac9-86a963d18ac6}; !- Thermal Zone Name

OS:Surface,
  {c2f8c97b-c29e-46ef-8b37-a6b70d608f85}, !- Handle
  Surface 13,                             !- Name
  Floor,                                  !- Surface Type
  ,                                       !- Construction Name
  {7fe65526-77a7-4e71-aabf-b4fc8d929592}, !- Space Name
  Ground,                                 !- Outside Boundary Condition
  ,                                       !- Outside Boundary Condition Object
  NoSun,                                  !- Sun Exposure
  NoWind,                                 !- Wind Exposure
  ,                                       !- View Factor to Ground
  ,                                       !- Number of Vertices
  3, 47, 0,                               !- X,Y,Z Vertex 1 {m}
  3, -3, 0,                               !- X,Y,Z Vertex 2 {m}
  0, 0, 0,                                !- X,Y,Z Vertex 3 {m}
  0, 44, 0;                               !- X,Y,Z Vertex 4 {m}

OS:Surface,
  {03094f9c-dde6-4123-9101-9426230219e1}, !- Handle
  Surface 14,                             !- Name
  Wall,                                   !- Surface Type
  ,                                       !- Construction Name
  {7fe65526-77a7-4e71-aabf-b4fc8d929592}, !- Space Name
  Outdoors,                               !- Outside Boundary Condition
  ,                                       !- Outside Boundary Condition Object
  SunExposed,                             !- Sun Exposure
  WindExposed,                            !- Wind Exposure
  ,                                       !- View Factor to Ground
  ,                                       !- Number of Vertices
  3, -3, 4,                               !- X,Y,Z Vertex 1 {m}
  3, -3, 0,                               !- X,Y,Z Vertex 2 {m}
  3, 47, 0,                               !- X,Y,Z Vertex 3 {m}
  3, 47, 4;                               !- X,Y,Z Vertex 4 {m}

OS:Surface,
  {afd4cd9c-7008-43c6-a4e0-20ae79dffdf2}, !- Handle
  Surface 15,                             !- Name
  Wall,                                   !- Surface Type
  ,                                       !- Construction Name
  {7fe65526-77a7-4e71-aabf-b4fc8d929592}, !- Space Name
  Surface,                                !- Outside Boundary Condition
  {a8da7f03-9b4e-4107-bbb0-e6cf1e4d5aff}, !- Outside Boundary Condition Object
  NoSun,                                  !- Sun Exposure
  NoWind,                                 !- Wind Exposure
  ,                                       !- View Factor to Ground
  ,                                       !- Number of Vertices
  0, 0, 4,                                !- X,Y,Z Vertex 1 {m}
  0, 0, 0,                                !- X,Y,Z Vertex 2 {m}
  3, -3, 0,                               !- X,Y,Z Vertex 3 {m}
  3, -3, 4;                               !- X,Y,Z Vertex 4 {m}

OS:Surface,
  {5e24b21c-29ad-4dbb-a262-176e7926dc13}, !- Handle
  Surface 16,                             !- Name
  Wall,                                   !- Surface Type
  ,                                       !- Construction Name
  {7fe65526-77a7-4e71-aabf-b4fc8d929592}, !- Space Name
  Surface,                                !- Outside Boundary Condition
  {829f4bd4-66b1-4904-9c77-f7d13c874476}, !- Outside Boundary Condition Object
  NoSun,                                  !- Sun Exposure
  NoWind,                                 !- Wind Exposure
  ,                                       !- View Factor to Ground
  ,                                       !- Number of Vertices
  0, 44, 4,                               !- X,Y,Z Vertex 1 {m}
  0, 44, 0,                               !- X,Y,Z Vertex 2 {m}
  0, 0, 0,                                !- X,Y,Z Vertex 3 {m}
  0, 0, 4;                                !- X,Y,Z Vertex 4 {m}

OS:Surface,
  {0d181816-b6fa-4247-8e58-32f2c9265229}, !- Handle
  Surface 17,                             !- Name
  Wall,                                   !- Surface Type
  ,                                       !- Construction Name
  {7fe65526-77a7-4e71-aabf-b4fc8d929592}, !- Space Name
  Surface,                                !- Outside Boundary Condition
  {19c612ad-4a0e-46df-b8b0-23f3e87c4993}, !- Outside Boundary Condition Object
  NoSun,                                  !- Sun Exposure
  NoWind,                                 !- Wind Exposure
  ,                                       !- View Factor to Ground
  ,                                       !- Number of Vertices
  3, 47, 4,                               !- X,Y,Z Vertex 1 {m}
  3, 47, 0,                               !- X,Y,Z Vertex 2 {m}
  0, 44, 0,                               !- X,Y,Z Vertex 3 {m}
  0, 44, 4;                               !- X,Y,Z Vertex 4 {m}

OS:Surface,
  {77c8bdfd-cd5c-4e09-b9b9-4c8e68afe3ba}, !- Handle
  Surface 18,                             !- Name
  RoofCeiling,                            !- Surface Type
  ,                                       !- Construction Name
  {7fe65526-77a7-4e71-aabf-b4fc8d929592}, !- Space Name
  Surface,                                !- Outside Boundary Condition
  {e585d680-71e6-45a6-b9c4-d581116753c2}, !- Outside Boundary Condition Object
  NoSun,                                  !- Sun Exposure
  NoWind,                                 !- Wind Exposure
  ,                                       !- View Factor to Ground
  ,                                       !- Number of Vertices
  0, 44, 4,                               !- X,Y,Z Vertex 1 {m}
  0, 0, 4,                                !- X,Y,Z Vertex 2 {m}
  3, -3, 4,                               !- X,Y,Z Vertex 3 {m}
  3, 47, 4;                               !- X,Y,Z Vertex 4 {m}

OS:Space,
  {51eaa8f7-b87d-457d-bac6-f227a0950d16}, !- Handle
  Story 1 South Perimeter Space,          !- Name
  ,                                       !- Space Type Name
  ,                                       !- Default Construction Set Name
  ,                                       !- Default Schedule Set Name
  -0,                                     !- Direction of Relative North {deg}
  0,                                      !- X Origin {m}
  0,                                      !- Y Origin {m}
  0,                                      !- Z Origin {m}
  {a1f51ae3-0ccf-409f-bf24-d6079b8db2b8}, !- Building Story Name
  {617fe3fe-8c52-4365-86b8-7762b99f4131}; !- Thermal Zone Name

OS:Surface,
  {312f74af-26af-44e8-b22a-877178af27d8}, !- Handle
  Surface 19,                             !- Name
  Floor,                                  !- Surface Type
  ,                                       !- Construction Name
  {51eaa8f7-b87d-457d-bac6-f227a0950d16}, !- Space Name
  Ground,                                 !- Outside Boundary Condition
  ,                                       !- Outside Boundary Condition Object
  NoSun,                                  !- Sun Exposure
  NoWind,                                 !- Wind Exposure
  ,                                       !- View Factor to Ground
  ,                                       !- Number of Vertices
  50, 0, 0,                               !- X,Y,Z Vertex 1 {m}
  0, 0, 0,                                !- X,Y,Z Vertex 2 {m}
  3, 3, 0,                                !- X,Y,Z Vertex 3 {m}
  47, 3, 0;                               !- X,Y,Z Vertex 4 {m}

OS:Surface,
  {221cc6c3-342b-4934-9463-e6b106f4ed00}, !- Handle
  Surface 20,                             !- Name
  Wall,                                   !- Surface Type
  ,                                       !- Construction Name
  {51eaa8f7-b87d-457d-bac6-f227a0950d16}, !- Space Name
  Outdoors,                               !- Outside Boundary Condition
  ,                                       !- Outside Boundary Condition Object
  SunExposed,                             !- Sun Exposure
  WindExposed,                            !- Wind Exposure
  ,                                       !- View Factor to Ground
  ,                                       !- Number of Vertices
  0, 0, 4,                                !- X,Y,Z Vertex 1 {m}
  0, 0, 0,                                !- X,Y,Z Vertex 2 {m}
  50, 0, 0,                               !- X,Y,Z Vertex 3 {m}
  50, 0, 4;                               !- X,Y,Z Vertex 4 {m}

OS:Surface,
  {5c00ea07-26ff-4dff-a14b-fbe1802682f6}, !- Handle
  Surface 21,                             !- Name
  Wall,                                   !- Surface Type
  ,                                       !- Construction Name
  {51eaa8f7-b87d-457d-bac6-f227a0950d16}, !- Space Name
  Surface,                                !- Outside Boundary Condition
  {c54ea69f-854f-4ed8-8c04-70d26c16b952}, !- Outside Boundary Condition Object
  NoSun,                                  !- Sun Exposure
  NoWind,                                 !- Wind Exposure
  ,                                       !- View Factor to Ground
  ,                                       !- Number of Vertices
  3, 3, 4,                                !- X,Y,Z Vertex 1 {m}
  3, 3, 0,                                !- X,Y,Z Vertex 2 {m}
  0, 0, 0,                                !- X,Y,Z Vertex 3 {m}
  0, 0, 4;                                !- X,Y,Z Vertex 4 {m}

OS:Surface,
  {6e2d5682-e6cb-456b-941b-794e14a323c9}, !- Handle
  Surface 22,                             !- Name
  Wall,                                   !- Surface Type
  ,                                       !- Construction Name
  {51eaa8f7-b87d-457d-bac6-f227a0950d16}, !- Space Name
  Surface,                                !- Outside Boundary Condition
  {5baa651c-e3d8-4196-abf5-a1d26df905ec}, !- Outside Boundary Condition Object
  NoSun,                                  !- Sun Exposure
  NoWind,                                 !- Wind Exposure
  ,                                       !- View Factor to Ground
  ,                                       !- Number of Vertices
  47, 3, 4,                               !- X,Y,Z Vertex 1 {m}
  47, 3, 0,                               !- X,Y,Z Vertex 2 {m}
  3, 3, 0,                                !- X,Y,Z Vertex 3 {m}
  3, 3, 4;                                !- X,Y,Z Vertex 4 {m}

OS:Surface,
  {a8da7f03-9b4e-4107-bbb0-e6cf1e4d5aff}, !- Handle
  Surface 23,                             !- Name
  Wall,                                   !- Surface Type
  ,                                       !- Construction Name
  {51eaa8f7-b87d-457d-bac6-f227a0950d16}, !- Space Name
  Surface,                                !- Outside Boundary Condition
  {afd4cd9c-7008-43c6-a4e0-20ae79dffdf2}, !- Outside Boundary Condition Object
  NoSun,                                  !- Sun Exposure
  NoWind,                                 !- Wind Exposure
  ,                                       !- View Factor to Ground
  ,                                       !- Number of Vertices
  50, 0, 4,                               !- X,Y,Z Vertex 1 {m}
  50, 0, 0,                               !- X,Y,Z Vertex 2 {m}
  47, 3, 0,                               !- X,Y,Z Vertex 3 {m}
  47, 3, 4;                               !- X,Y,Z Vertex 4 {m}

OS:Surface,
  {0a1f4f7c-f160-4b9c-97f5-2fd1788cf07a}, !- Handle
  Surface 24,                             !- Name
  RoofCeiling,                            !- Surface Type
  ,                                       !- Construction Name
  {51eaa8f7-b87d-457d-bac6-f227a0950d16}, !- Space Name
  Surface,                                !- Outside Boundary Condition
  {1b09ed29-e325-4a41-bab4-8f7ce19f3a5f}, !- Outside Boundary Condition Object
  NoSun,                                  !- Sun Exposure
  NoWind,                                 !- Wind Exposure
  ,                                       !- View Factor to Ground
  ,                                       !- Number of Vertices
  47, 3, 4,                               !- X,Y,Z Vertex 1 {m}
  3, 3, 4,                                !- X,Y,Z Vertex 2 {m}
  0, 0, 4,                                !- X,Y,Z Vertex 3 {m}
  50, 0, 4;                               !- X,Y,Z Vertex 4 {m}

OS:Space,
  {20a7414a-66e7-4f1f-96c0-61357d4f07f2}, !- Handle
  Story 1 Core Space,                     !- Name
  ,                                       !- Space Type Name
  ,                                       !- Default Construction Set Name
  ,                                       !- Default Schedule Set Name
  -0,                                     !- Direction of Relative North {deg}
  3,                                      !- X Origin {m}
  3,                                      !- Y Origin {m}
  0,                                      !- Z Origin {m}
  {a1f51ae3-0ccf-409f-bf24-d6079b8db2b8}, !- Building Story Name
  {1ab99892-a6a5-449f-9097-b334b9bf36a2}; !- Thermal Zone Name

OS:Surface,
  {9e499bf2-e888-4df7-8b47-53714b44b81c}, !- Handle
  Surface 25,                             !- Name
  Floor,                                  !- Surface Type
  ,                                       !- Construction Name
  {20a7414a-66e7-4f1f-96c0-61357d4f07f2}, !- Space Name
  Ground,                                 !- Outside Boundary Condition
  ,                                       !- Outside Boundary Condition Object
  NoSun,                                  !- Sun Exposure
  NoWind,                                 !- Wind Exposure
  ,                                       !- View Factor to Ground
  ,                                       !- Number of Vertices
  0, 0, 0,                                !- X,Y,Z Vertex 1 {m}
  0, 44, 0,                               !- X,Y,Z Vertex 2 {m}
  44, 44, 0,                              !- X,Y,Z Vertex 3 {m}
  44, 0, 0;                               !- X,Y,Z Vertex 4 {m}

OS:Surface,
  {45a88dbc-1a4d-42f5-9db2-9e36b7f4b490}, !- Handle
  Surface 26,                             !- Name
  Wall,                                   !- Surface Type
  ,                                       !- Construction Name
  {20a7414a-66e7-4f1f-96c0-61357d4f07f2}, !- Space Name
  Surface,                                !- Outside Boundary Condition
  {f4cbae10-8b10-40c2-b4af-a758c6543745}, !- Outside Boundary Condition Object
  NoSun,                                  !- Sun Exposure
  NoWind,                                 !- Wind Exposure
  ,                                       !- View Factor to Ground
  ,                                       !- Number of Vertices
  0, 44, 4,                               !- X,Y,Z Vertex 1 {m}
  0, 44, 0,                               !- X,Y,Z Vertex 2 {m}
  0, 0, 0,                                !- X,Y,Z Vertex 3 {m}
  0, 0, 4;                                !- X,Y,Z Vertex 4 {m}

OS:Surface,
  {3965847c-3ded-4099-bd49-a77f9aa685df}, !- Handle
  Surface 27,                             !- Name
  Wall,                                   !- Surface Type
  ,                                       !- Construction Name
  {20a7414a-66e7-4f1f-96c0-61357d4f07f2}, !- Space Name
  Surface,                                !- Outside Boundary Condition
  {e090dd05-015c-4033-8e5a-604b7f53a2ca}, !- Outside Boundary Condition Object
  NoSun,                                  !- Sun Exposure
  NoWind,                                 !- Wind Exposure
  ,                                       !- View Factor to Ground
  ,                                       !- Number of Vertices
  44, 44, 4,                              !- X,Y,Z Vertex 1 {m}
  44, 44, 0,                              !- X,Y,Z Vertex 2 {m}
  0, 44, 0,                               !- X,Y,Z Vertex 3 {m}
  0, 44, 4;                               !- X,Y,Z Vertex 4 {m}

OS:Surface,
  {829f4bd4-66b1-4904-9c77-f7d13c874476}, !- Handle
  Surface 28,                             !- Name
  Wall,                                   !- Surface Type
  ,                                       !- Construction Name
  {20a7414a-66e7-4f1f-96c0-61357d4f07f2}, !- Space Name