
OS:Version,
  {f03f4fae-57c5-4224-b9c9-4b09d72df0b8}, !- Handle
  0.10.0;                                 !- Version Identifier

OS:BuildingStory,
  {417c956c-dc9e-42f0-880f-7257885e1a60}, !- Handle
  Story 1,                                !- Name
  0,                                      !- Nominal Z Coordinate {m}
  4,                                      !- Nominal Floor to Floor Height {m}
  ,                                       !- Default Construction Set Name
  ,                                       !- Default Schedule Set Name
  ;                                       !- Group Rendering Name

OS:Space,
  {421a84b2-16e9-41fd-b600-1f979cc99f70}, !- Handle
  Story 1 West Perimeter Space,           !- Name
  ,                                       !- Space Type Name
  ,                                       !- Default Construction Set Name
  ,                                       !- Default Schedule Set Name
  -0,                                     !- Direction of Relative North {deg}
  0,                                      !- X Origin {m}
  0,                                      !- Y Origin {m}
  0,                                      !- Z Origin {m}
  {417c956c-dc9e-42f0-880f-7257885e1a60}, !- Building Story Name
  {59806913-3ebf-4547-a43b-0a230ca8fb7a}; !- Thermal Zone Name

OS:Surface,
  {1aa9c9e5-7c73-4631-a8ca-2053d0acf46e}, !- Handle
  Surface 1,                              !- Name
  Floor,                                  !- Surface Type
  ,                                       !- Construction Name
  {421a84b2-16e9-41fd-b600-1f979cc99f70}, !- Space Name
  Ground,                                 !- Outside Boundary Condition
  ,                                       !- Outside Boundary Condition Object
  NoSun,                                  !- Sun Exposure
  NoWind,                                 !- Wind Exposure
  ,                                       !- View Factor to Ground
  ,                                       !- Number of Vertices
  0, 0, 0,                                !- X,Y,Z Vertex 1 {m}
  0, 15.8113883008419, 0,                 !- X,Y,Z Vertex 2 {m}
  3, 12.8113883008419, 0,                 !- X,Y,Z Vertex 3 {m}
  3, 3, 0;                                !- X,Y,Z Vertex 4 {m}

OS:Surface,
  {a2becc4a-ba9e-485a-aaee-1271c5c1cfe2}, !- Handle
  Surface 2,                              !- Name
  Wall,                                   !- Surface Type
  ,                                       !- Construction Name
  {421a84b2-16e9-41fd-b600-1f979cc99f70}, !- Space Name
  Outdoors,                               !- Outside Boundary Condition
  ,                                       !- Outside Boundary Condition Object
  SunExposed,                             !- Sun Exposure
  WindExposed,                            !- Wind Exposure
  ,                                       !- View Factor to Ground
  ,                                       !- Number of Vertices
  0, 15.8113883008419, 4,                 !- X,Y,Z Vertex 1 {m}
  0, 15.8113883008419, 0,                 !- X,Y,Z Vertex 2 {m}
  0, 0, 0,                                !- X,Y,Z Vertex 3 {m}
  0, 0, 4;                                !- X,Y,Z Vertex 4 {m}

OS:Surface,
  {d6cfbef7-0ce9-4581-b6d2-0a0631210c8e}, !- Handle
  Surface 3,                              !- Name
  Wall,                                   !- Surface Type
  ,                                       !- Construction Name
  {421a84b2-16e9-41fd-b600-1f979cc99f70}, !- Space Name
  Surface,                                !- Outside Boundary Condition
  {5918ec02-ef88-4d08-8285-ef8aebed5fa2}, !- Outside Boundary Condition Object
  NoSun,                                  !- Sun Exposure
  NoWind,                                 !- Wind Exposure
  ,                                       !- View Factor to Ground
  ,                                       !- Number of Vertices
  3, 12.8113883008419, 4,                 !- X,Y,Z Vertex 1 {m}
  3, 12.8113883008419, 0,                 !- X,Y,Z Vertex 2 {m}
  0, 15.8113883008419, 0,                 !- X,Y,Z Vertex 3 {m}
  0, 15.8113883008419, 4;                 !- X,Y,Z Vertex 4 {m}

OS:Surface,
  {d592cfbe-f900-4ec3-afbb-01856158f7ef}, !- Handle
  Surface 4,                              !- Name
  Wall,                                   !- Surface Type
  ,                                       !- Construction Name
  {421a84b2-16e9-41fd-b600-1f979cc99f70}, !- Space Name
  Surface,                                !- Outside Boundary Condition
  {1864b9c8-6ae4-431f-b66f-0a194ca7625a}, !- Outside Boundary Condition Object
  NoSun,                                  !- Sun Exposure
  NoWind,                                 !- Wind Exposure
  ,                                       !- View Factor to Ground
  ,                                       !- Number of Vertices
  3, 3, 4,                                !- X,Y,Z Vertex 1 {m}
  3, 3, 0,                                !- X,Y,Z Vertex 2 {m}
  3, 12.8113883008419, 0,                 !- X,Y,Z Vertex 3 {m}
  3, 12.8113883008419, 4;                 !- X,Y,Z Vertex 4 {m}

OS:Surface,
  {b2ad66b6-f52e-474e-a5f9-ac11ec9957a9}, !- Handle
  Surface 5,                              !- Name
  Wall,                                   !- Surface Type
  ,                                       !- Construction Name
  {421a84b2-16e9-41fd-b600-1f979cc99f70}, !- Space Name
  Surface,                                !- Outside Boundary Condition
  {1019c163-c46e-417d-b027-9681c3fe8d73}, !- Outside Boundary Condition Object
  NoSun,                                  !- Sun Exposure
  NoWind,                                 !- Wind Exposure
  ,                                       !- View Factor to Ground
  ,                                       !- Number of Vertices
  0, 0, 4,                                !- X,Y,Z Vertex 1 {m}
  0, 0, 0,                                !- X,Y,Z Vertex 2 {m}
  3, 3, 0,                                !- X,Y,Z Vertex 3 {m}
  3, 3, 4;                                !- X,Y,Z Vertex 4 {m}

OS:Surface,
  {d5c8f843-e2dd-4cf2-bf4c-4bc6e8a16704}, !- Handle
  Surface 6,                              !- Name
  RoofCeiling,                            !- Surface Type
  ,                                       !- Construction Name
  {421a84b2-16e9-41fd-b600-1f979cc99f70}, !- Space Name
  Surface,                                !- Outside Boundary Condition
  {d3624d58-923f-4802-b796-24d53870659f}, !- Outside Boundary Condition Object
  NoSun,                                  !- Sun Exposure
  NoWind,                                 !- Wind Exposure
  ,                                       !- View Factor to Ground
  ,                                       !- Number of Vertices
  3, 3, 4,                                !- X,Y,Z Vertex 1 {m}
  3, 12.8113883008419, 4,                 !- X,Y,Z Vertex 2 {m}
  0, 15.8113883008419, 4,                 !- X,Y,Z Vertex 3 {m}
  0, 0, 4;                                !- X,Y,Z Vertex 4 {m}

OS:Space,
  {6d741797-8059-4760-a2c7-72cbdd8039c2}, !- Handle
  Story 1 North Perimeter Space,          !- Name
  ,                                       !- Space Type Name
  ,                                       !- Default Construction Set Name
  ,                                       !- Default Schedule Set Name
  -0,                                     !- Direction of Relative North {deg}
  3,                                      !- X Origin {m}
  12.8113883008419,                       !- Y Origin {m}
  0,                                      !- Z Origin {m}
  {417c956c-dc9e-42f0-880f-7257885e1a60}, !- Building Story Name
  {d187e670-1d16-4962-827e-1af0d298b566}; !- Thermal Zone Name

OS:Surface,
  {575145e2-6fb2-48e6-ae13-7d583906350b}, !- Handle
  Surface 7,                              !- Name
  Floor,                                  !- Surface Type
  ,                                       !- Construction Name
  {6d741797-8059-4760-a2c7-72cbdd8039c2}, !- Space Name
  Ground,                                 !- Outside Boundary Condition
  ,                                       !- Outside Boundary Condition Object
  NoSun,                                  !- Sun Exposure
  NoWind,                                 !- Wind Exposure
  ,                                       !- View Factor to Ground
  ,                                       !- Number of Vertices
  -3, 3, 0,                               !- X,Y,Z Vertex 1 {m}
  12.8113883008419, 3, 0,                 !- X,Y,Z Vertex 2 {m}
  9.8113883008419, 3.5527136788005e-15, 0, !- X,Y,Z Vertex 3 {m}
  0, 3.5527136788005e-15, 0;              !- X,Y,Z Vertex 4 {m}

OS:Surface,
  {1d502b5f-88ed-4d3e-abd0-37b02c965911}, !- Handle
  Surface 8,                              !- Name
  Wall,                                   !- Surface Type
  ,                                       !- Construction Name
  {6d741797-8059-4760-a2c7-72cbdd8039c2}, !- Space Name
  Outdoors,                               !- Outside Boundary Condition
  ,                                       !- Outside Boundary Condition Object
  SunExposed,                             !- Sun Exposure
  WindExposed,                            !- Wind Exposure
  ,                                       !- View Factor to Ground
  ,                                       !- Number of Vertices
  12.8113883008419, 3, 4,                 !- X,Y,Z Vertex 1 {m}
  12.8113883008419, 3, 0,                 !- X,Y,Z Vertex 2 {m}
  -3, 3, 0,                               !- X,Y,Z Vertex 3 {m}
  -3, 3, 4;                               !- X,Y,Z Vertex 4 {m}

OS:Surface,
  {90d0a34d-c83e-4f2e-8616-7b7caef8cd4f}, !- Handle
  Surface 9,                              !- Name
  Wall,                                   !- Surface Type
  ,                                       !- Construction Name
  {6d741797-8059-4760-a2c7-72cbdd8039c2}, !- Space Name
  Surface,                                !- Outside Boundary Condition
  {e7b3f403-f103-46c8-b8c1-da96cd47e101}, !- Outside Boundary Condition Object
  NoSun,                                  !- Sun Exposure
  NoWind,                                 !- Wind Exposure
  ,                                       !- View Factor to Ground
  ,                                       !- Number of Vertices
  9.8113883008419, 3.5527136788005e-15, 4, !- X,Y,Z Vertex 1 {m}
  9.8113883008419, 3.5527136788005e-15, 0, !- X,Y,Z Vertex 2 {m}
  12.8113883008419, 3, 0,                 !- X,Y,Z Vertex 3 {m}
  12.8113883008419, 3, 4;                 !- X,Y,Z Vertex 4 {m}

OS:Surface,
  {ad79c4d3-e566-4a95-a1bc-3830d99be107}, !- Handle
  Surface 10,                             !- Name
  Wall,                                   !- Surface Type
  ,                                       !- Construction Name
  {6d741797-8059-4760-a2c7-72cbdd8039c2}, !- Space Name
  Surface,                                !- Outside Boundary Condition
  {1f8e6198-d67b-4681-aba7-c18f9ebc16bb}, !- Outside Boundary Condition Object
  NoSun,                                  !- Sun Exposure
  NoWind,                                 !- Wind Exposure
  ,                                       !- View Factor to Ground
  ,                                       !- Number of Vertices
  0, 3.5527136788005e-15, 4,              !- X,Y,Z Vertex 1 {m}
  0, 3.5527136788005e-15, 0,              !- X,Y,Z Vertex 2 {m}
  9.8113883008419, 3.5527136788005e-15, 0, !- X,Y,Z Vertex 3 {m}
  9.8113883008419, 3.5527136788005e-15, 4; !- X,Y,Z Vertex 4 {m}

OS:Surface,
  {5918ec02-ef88-4d08-8285-ef8aebed5fa2}, !- Handle
  Surface 11,                             !- Name
  Wall,                                   !- Surface Type
  ,                                       !- Construction Name
  {6d741797-8059-4760-a2c7-72cbdd8039c2}, !- Space Name
  Surface,                                !- Outside Boundary Condition
  {d6cfbef7-0ce9-4581-b6d2-0a0631210c8e}, !- Outside Boundary Condition Object
  NoSun,                                  !- Sun Exposure
  NoWind,                                 !- Wind Exposure
  ,                                       !- View Factor to Ground
  ,                                       !- Number of Vertices
  -3, 3, 4,                               !- X,Y,Z Vertex 1 {m}
  -3, 3, 0,                               !- X,Y,Z Vertex 2 {m}
  0, 3.5527136788005e-15, 0,              !- X,Y,Z Vertex 3 {m}
  0, 3.5527136788005e-15, 4;              !- X,Y,Z Vertex 4 {m}

OS:Surface,
  {f45e9ee2-c732-4c35-8c4f-4973f4aa8f53}, !- Handle
  Surface 12,                             !- Name
  RoofCeiling,                            !- Surface Type
  ,                                       !- Construction Name
  {6d741797-8059-4760-a2c7-72cbdd8039c2}, !- Space Name
  Surface,                                !- Outside Boundary Condition
  {e09381ab-3195-49f7-8312-d69a7b038d71}, !- Outside Boundary Condition Object
  NoSun,                                  !- Sun Exposure
  NoWind,                                 !- Wind Exposure
  ,                                       !- View Factor to Ground
  ,                                       !- Number of Vertices
  0, 3.5527136788005e-15, 4,              !- X,Y,Z Vertex 1 {m}
  9.8113883008419, 3.5527136788005e-15, 4, !- X,Y,Z Vertex 2 {m}
  12.8113883008419, 3, 4,                 !- X,Y,Z Vertex 3 {m}
  -3, 3, 4;                               !- X,Y,Z Vertex 4 {m}

OS:Space,
  {0a3e02c7-7c32-4bb3-8eb4-e31c88515db4}, !- Handle
  Story 1 East Perimeter Space,           !- Name
  ,                                       !- Space Type Name
  ,                                       !- Default Construction Set Name
  ,                                       !- Default Schedule Set Name
  -0,                                     !- Direction of Relative North {deg}
  12.8113883008419,                       !- X Origin {m}
  3,                                      !- Y Origin {m}
  0,                                      !- Z Origin {m}
  {417c956c-dc9e-42f0-880f-7257885e1a60}, !- Building Story Name
  {f872d0b3-10d5-4fde-9ce5-8f7e820f15da}; !- Thermal Zone Name

OS:Surface,
  {9cb0d3dd-752a-471d-9a59-7a978e0ec186}, !- Handle
  Surface 13,                             !- Name
  Floor,                                  !- Surface Type
  ,                                       !- Construction Name
  {0a3e02c7-7c32-4bb3-8eb4-e31c88515db4}, !- Space Name
  Ground,                                 !- Outside Boundary Condition
  ,                                       !- Outside Boundary Condition Object
  NoSun,                                  !- Sun Exposure
  NoWind,                                 !- Wind Exposure
  ,                                       !- View Factor to Ground
  ,                                       !- Number of Vertices
  3, 12.8113883008419, 0,                 !- X,Y,Z Vertex 1 {m}
  3, -3, 0,                               !- X,Y,Z Vertex 2 {m}
  3.5527136788005e-15, 0, 0,              !- X,Y,Z Vertex 3 {m}
  3.5527136788005e-15, 9.8113883008419, 0; !- X,Y,Z Vertex 4 {m}

OS:Surface,
  {4583b20b-6c13-4383-b12a-685e5b535415}, !- Handle
  Surface 14,                             !- Name
  Wall,                                   !- Surface Type
  ,                                       !- Construction Name
  {0a3e02c7-7c32-4bb3-8eb4-e31c88515db4}, !- Space Name
  Outdoors,                               !- Outside Boundary Condition
  ,                                       !- Outside Boundary Condition Object
  SunExposed,                             !- Sun Exposure
  WindExposed,                            !- Wind Exposure
  ,                                       !- View Factor to Ground
  ,                                       !- Number of Vertices
  3, -3, 4,                               !- X,Y,Z Vertex 1 {m}
  3, -3, 0,                               !- X,Y,Z Vertex 2 {m}
  3, 12.8113883008419, 0,                 !- X,Y,Z Vertex 3 {m}
  3, 12.8113883008419, 4;                 !- X,Y,Z Vertex 4 {m}

OS:Surface,
  {94ed185d-6a85-4bd0-94a8-df87e0d7a10a}, !- Handle
  Surface 15,                             !- Name
  Wall,                                   !- Surface Type
  ,                                       !- Construction Name
  {0a3e02c7-7c32-4bb3-8eb4-e31c88515db4}, !- Space Name
  Surface,                                !- Outside Boundary Condition
  {38124f5c-a253-42a7-94cd-fd4508ff8600}, !- Outside Boundary Condition Object
  NoSun,                                  !- Sun Exposure
  NoWind,                                 !- Wind Exposure
  ,                                       !- View Factor to Ground
  ,                                       !- Number of Vertices
  3.5527136788005e-15, 0, 4,              !- X,Y,Z Vertex 1 {m}
  3.5527136788005e-15, 0, 0,              !- X,Y,Z Vertex 2 {m}
  3, -3, 0,                               !- X,Y,Z Vertex 3 {m}
  3, -3, 4;                               !- X,Y,Z Vertex 4 {m}

OS:Surface,
  {bdbb804a-1fc5-41c1-883a-1e547e0e2a51}, !- Handle
  Surface 16,                             !- Name
  Wall,                                   !- Surface Type
  ,                                       !- Construction Name
  {0a3e02c7-7c32-4bb3-8eb4-e31c88515db4}, !- Space Name
  Surface,                                !- Outside Boundary Condition
  {c5a3f875-5a02-4720-8e2d-03ec5a2f4d9b}, !- Outside Boundary Condition Object
  NoSun,                                  !- Sun Exposure
  NoWind,                                 !- Wind Exposure
  ,                                       !- View Factor to Ground
  ,                                       !- Number of Vertices
  3.5527136788005e-15, 9.8113883008419, 4, !- X,Y,Z Vertex 1 {m}
  3.5527136788005e-15, 9.8113883008419, 0, !- X,Y,Z Vertex 2 {m}
  3.5527136788005e-15, 0, 0,              !- X,Y,Z Vertex 3 {m}
  3.5527136788005e-15, 0, 4;              !- X,Y,Z Vertex 4 {m}

OS:Surface,
  {e7b3f403-f103-46c8-b8c1-da96cd47e101}, !- Handle
  Surface 17,                             !- Name
  Wall,                                   !- Surface Type
  ,                                       !- Construction Name
  {0a3e02c7-7c32-4bb3-8eb4-e31c88515db4}, !- Space Name
  Surface,                                !- Outside Boundary Condition
  {90d0a34d-c83e-4f2e-8616-7b7caef8cd4f}, !- Outside Boundary Condition Object
  NoSun,                                  !- Sun Exposure
  NoWind,                                 !- Wind Exposure
  ,                                       !- View Factor to Ground
  ,                                       !- Number of Vertices
  3, 12.8113883008419, 4,                 !- X,Y,Z Vertex 1 {m}
  3, 12.8113883008419, 0,                 !- X,Y,Z Vertex 2 {m}
  3.5527136788005e-15, 9.8113883008419, 0, !- X,Y,Z Vertex 3 {m}
  3.5527136788005e-15, 9.8113883008419, 4; !- X,Y,Z Vertex 4 {m}

OS:Surface,
  {d6db4d23-4421-407f-898f-96ba84b547a0}, !- Handle
  Surface 18,                             !- Name
  RoofCeiling,                            !- Surface Type
  ,                                       !- Construction Name
  {0a3e02c7-7c32-4bb3-8eb4-e31c88515db4}, !- Space Name
  Surface,                                !- Outside Boundary Condition
  {713255fc-9802-4c46-b69e-3c77f764b30b}, !- Outside Boundary Condition Object
  NoSun,                                  !- Sun Exposure
  NoWind,                                 !- Wind Exposure
  ,                                       !- View Factor to Ground
  ,                                       !- Number of Vertices
  3.5527136788005e-15, 9.8113883008419, 4, !- X,Y,Z Vertex 1 {m}
  3.5527136788005e-15, 0, 4,              !- X,Y,Z Vertex 2 {m}
  3, -3, 4,                               !- X,Y,Z Vertex 3 {m}
  3, 12.8113883008419, 4;                 !- X,Y,Z Vertex 4 {m}

OS:Space,
  {4defbc79-2ac3-4073-8d36-ba404988c7ec}, !- Handle
  Story 1 South Perimeter Space,          !- Name
  ,                                       !- Space Type Name
  ,                                       !- Default Construction Set Name
  ,                                       !- Default Schedule Set Name
  -0,                                     !- Direction of Relative North {deg}
  0,                                      !- X Origin {m}
  0,                                      !- Y Origin {m}
  0,                                      !- Z Origin {m}
  {417c956c-dc9e-42f0-880f-7257885e1a60}, !- Building Story Name
  {a69be431-2027-4421-bf24-e76cc6443680}; !- Thermal Zone Name

OS:Surface,
  {1c14da19-2060-45b7-a23f-ab75ccb20dbf}, !- Handle
  Surface 19,                             !- Name
  Floor,                                  !- Surface Type
  ,                                       !- Construction Name
  {4defbc79-2ac3-4073-8d36-ba404988c7ec}, !- Space Name
  Ground,                                 !- Outside Boundary Condition
  ,                                       !- Outside Boundary Condition Object
  NoSun,                                  !- Sun Exposure
  NoWind,                                 !- Wind Exposure
  ,                                       !- View Factor to Ground
  ,                                       !- Number of Vertices
  15.8113883008419, 0, 0,                 !- X,Y,Z Vertex 1 {m}
  0, 0, 0,                                !- X,Y,Z Vertex 2 {m}
  3, 3, 0,                                !- X,Y,Z Vertex 3 {m}
  12.8113883008419, 3, 0;                 !- X,Y,Z Vertex 4 {m}

OS:Surface,
  {f94efdca-6010-4177-b7f4-02bdaa2d30c4}, !- Handle
  Surface 20,                             !- Name
  Wall,                                   !- Surface Type
  ,                                       !- Construction Name
  {4defbc79-2ac3-4073-8d36-ba404988c7ec}, !- Space Name
  Outdoors,                               !- Outside Boundary Condition
  ,                                       !- Outside Boundary Condition Object
  SunExposed,                             !- Sun Exposure
  WindExposed,                            !- Wind Exposure
  ,                                       !- View Factor to Ground
  ,                                       !- Number of Vertices
  0, 0, 4,                                !- X,Y,Z Vertex 1 {m}
  0, 0, 0,                                !- X,Y,Z Vertex 2 {m}
  15.8113883008419, 0, 0,                 !- X,Y,Z Vertex 3 {m}
  15.8113883008419, 0, 4;                 !- X,Y,Z Vertex 4 {m}

OS:Surface,
  {1019c163-c46e-417d-b027-9681c3fe8d73}, !- Handle
  Surface 21,                             !- Name
  Wall,                                   !- Surface Type
  ,                                       !- Construction Name
  {4defbc79-2ac3-4073-8d36-ba404988c7ec}, !- Space Name
  Surface,                                !- Outside Boundary Condition
  {b2ad66b6-f52e-474e-a5f9-ac11ec9957a9}, !- Outside Boundary Condition Object
  NoSun,                                  !- Sun Exposure
  NoWind,                                 !- Wind Exposure
  ,                                       !- View Factor to Ground
  ,                                       !- Number of Vertices
  3, 3, 4,                                !- X,Y,Z Vertex 1 {m}
  3, 3, 0,                                !- X,Y,Z Vertex 2 {m}
  0, 0, 0,                                !- X,Y,Z Vertex 3 {m}
  0, 0, 4;                                !- X,Y,Z Vertex 4 {m}

OS:Surface,
  {d890d34f-ea38-4da4-b1a9-cc2340f6757f}, !- Handle
  Surface 22,                             !- Name
  Wall,                                   !- Surface Type
  ,                                       !- Construction Name
  {4defbc79-2ac3-4073-8d36-ba404988c7ec}, !- Space Name
  Surface,                                !- Outside Boundary Condition
  {bfa059cc-49fe-4cc2-992a-6659cfac2fb0}, !- Outside Boundary Condition Object
  NoSun,                                  !- Sun Exposure
  NoWind,                                 !- Wind Exposure
  ,                                       !- View Factor to Ground
  ,                                       !- Number of Vertices
  12.8113883008419, 3, 4,                 !- X,Y,Z Vertex 1 {m}
  12.8113883008419, 3, 0,                 !- X,Y,Z Vertex 2 {m}
  3, 3, 0,                                !- X,Y,Z Vertex 3 {m}
  3, 3, 4;                                !- X,Y,Z Vertex 4 {m}

OS:Surface,
  {38124f5c-a253-42a7-94cd-fd4508ff8600}, !- Handle
  Surface 23,                             !- Name
  Wall,                                   !- Surface Type
  ,                                       !- Construction Name
  {4defbc79-2ac3-4073-8d36-ba404988c7ec}, !- Space Name
  Surface,                                !- Outside Boundary Condition
  {94ed185d-6a85-4bd0-94a8-df87e0d7a10a}, !- Outside Boundary Condition Object
  NoSun,                                  !- Sun Exposure
  NoWind,                                 !- Wind Exposure
  ,                                       !- View Factor to Ground
  ,                                       !- Number of Vertices
  15.8113883008419, 0, 4,                 !- X,Y,Z Vertex 1 {m}
  15.8113883008419, 0, 0,                 !- X,Y,Z Vertex 2 {m}
  12.8113883008419, 3, 0,                 !- X,Y,Z Vertex 3 {m}
  12.8113883008419, 3, 4;                 !- X,Y,Z Vertex 4 {m}

OS:Surface,
  {e81c92c9-0dd9-4a65-8d1d-2348897d11a7}, !- Handle
  Surface 24,                             !- Name
  RoofCeiling,                            !- Surface Type
  ,                                       !- Construction Name
  {4defbc79-2ac3-4073-8d36-ba404988c7ec}, !- Space Name
  Surface,                                !- Outside Boundary Condition
  {8ee574e8-94a8-49d6-83b0-4aaf5bee9b27}, !- Outside Boundary Condition Object
  NoSun,                                  !- Sun Exposure
  NoWind,                                 !- Wind Exposure
  ,                                       !- View Factor to Ground
  ,                                       !- Number of Vertices
  12.8113883008419, 3, 4,                 !- X,Y,Z Vertex 1 {m}
  3, 3, 4,                                !- X,Y,Z Vertex 2 {m}
  0, 0, 4,                                !- X,Y,Z Vertex 3 {m}
  15.8113883008419, 0, 4;                 !- X,Y,Z Vertex 4 {m}

OS:Space,
  {c796be2c-fd63-4727-9ce1-98429c00df03}, !- Handle
  Story 1 Core Space,                     !- Name
  ,                                       !- Space Type Name
  ,                                       !- Default Construction Set Name
  ,                                       !- Default Schedule Set Name
  -0,                                     !- Direction of Relative North {deg}
  3,                                      !- X Origin {m}
  3,                                      !- Y Origin {m}
  0,                                      !- Z Origin {m}
  {417c956c-dc9e-42f0-880f-7257885e1a60}, !- Building Story Name
  {e46736e9-e201-491c-86c9-1ba6a6f8841f}; !- Thermal Zone Name

OS:Surface,
  {55017719-4cc5-4548-b6c5-dd96886643b3}, !- Handle
  Surface 25,                             !- Name
  Floor,                                  !- Surface Type
  ,                                       !- Construction Name
  {c796be2c-fd63-4727-9ce1-98429c00df03}, !- Space Name
  Ground,                                 !- Outside Boundary Condition
  ,                                       !- Outside Boundary Condition Object
  NoSun,                                  !- Sun Exposure
  NoWind,                                 !- Wind Exposure
  ,                                       !- View Factor to Ground
  ,                                       !- Number of Vertices
  0, 0, 0,                                !- X,Y,Z Vertex 1 {m}
  0, 9.8113883008419, 0,                  !- X,Y,Z Vertex 2 {m}
  9.8113883008419, 9.8113883008419, 0,    !- X,Y,Z Vertex 3 {m}
  9.8113883008419, 0, 0;                  !- X,Y,Z Vertex 4 {m}

OS:Surface,
  {1864b9c8-6ae4-431f-b66f-0a194ca7625a}, !- Handle
  Surface 26,                             !- Name
  Wall,                                   !- Surface Type
  ,                                       !- Construction Name
  {c796be2c-fd63-4727-9ce1-98429c00df03}, !- Space Name
  Surface,                                !- Outside Boundary Condition
  {d592cfbe-f900-4ec3-afbb-01856158f7ef}, !- Outside Boundary Condition Object
  NoSun,                                  !- Sun Exposure
  NoWind,                                 !- Wind Exposure
  ,                                       !- View Factor to Ground
  ,                                       !- Number of Vertices
  0, 9.8113883008419, 4,                  !- X,Y,Z Vertex 1 {m}
  0, 9.8113883008419, 0,                  !- X,Y,Z Vertex 2 {m}
  0, 0, 0,                                !- X,Y,Z Vertex 3 {m}
  0, 0, 4;                                !- X,Y,Z Vertex 4 {m}

OS:Surface,
  {1f8e6198-d67b-4681-aba7-c18f9ebc16bb}, !- Handle
  Surface 27,                             !- Name
  Wall,                                   !- Surface Type
  ,                                       !- Construction Name
  {c796be2c-fd63-4727-9ce1-98429c00df03}, !- Space Name
  Surface,                                !- Outside Boundary Condition
  {ad79c4d3-e566-4a95-a1bc-3830d99be107}, !- Outside Boundary Condition Object
  NoSun,                                  !- Sun Exposure
  NoWind,                                 !- Wind Exposure
  ,                                       !- View Factor to Ground
  ,                                       !- Number of Vertices
  9.8113883008419, 9.8113883008419, 4,    !- X,Y,Z Vertex 1 {m}
  9.8113883008419, 9.8113883008419, 0,    !- X,Y,Z Vertex 2 {m}
  0, 9.8113883008419, 0,                  !- X,Y,Z Vertex 3 {m}
  0, 9.8113883008419, 4;                  !- X,Y,Z Vertex 4 {m}

OS:Surface,
  {c5a3f875-5a02-4720-8e2d-03ec5a2f4d9b}, !- Handle
  Surface 28,                             !- Name
  Wall,                                   !- Surface Type
  ,                                       !- Construction Name
  {c796be2c-fd63-4727-9ce1-98429c00df03}, !- Space Name