
OS:Version,
  {efe3a8f8-7579-4177-9b8e-c51c303ed4ae}, !- Handle
  0.10.0;                                 !- Version Identifier

OS:BuildingStory,
  {5cf6aa94-f8cf-4038-83c1-3dc30bde1613}, !- Handle
  Story 1,                                !- Name
  0,                                      !- Nominal Z Coordinate {m}
  4,                                      !- Nominal Floor to Floor Height {m}
  ,                                       !- Default Construction Set Name
  ,                                       !- Default Schedule Set Name
  ;                                       !- Group Rendering Name

OS:Space,
  {00c4f53b-e7fb-42f9-8a2e-8a3b7a7c618f}, !- Handle
  Story 1 West Perimeter Space,           !- Name
  ,                                       !- Space Type Name
  ,                                       !- Default Construction Set Name
  ,                                       !- Default Schedule Set Name
  -0,                                     !- Direction of Relative North {deg}
  0,                                      !- X Origin {m}
  0,                                      !- Y Origin {m}
  0,                                      !- Z Origin {m}
  {5cf6aa94-f8cf-4038-83c1-3dc30bde1613}, !- Building Story Name
  {8208a589-980f-4e9b-9578-54b1e8645262}; !- Thermal Zone Name

OS:Surface,
  {62ca9a81-0cf0-47d2-89fb-0c0688c822ba}, !- Handle
  Surface 1,                              !- Name
  Floor,                                  !- Surface Type
  ,                                       !- Construction Name
  {00c4f53b-e7fb-42f9-8a2e-8a3b7a7c618f}, !- Space Name
  Ground,                                 !- Outside Boundary Condition
  ,                                       !- Outside Boundary Condition Object
  NoSun,                                  !- Sun Exposure
  NoWind,                                 !- Wind Exposure
  ,                                       !- View Factor to Ground
  ,                                       !- Number of Vertices
  0, 0, 0,                                !- X,Y,Z Vertex 1 {m}
  0, 19.9749843554382, 0,                 !- X,Y,Z Vertex 2 {m}
  3, 16.9749843554382, 0,                 !- X,Y,Z Vertex 3 {m}
  3, 3, 0;                                !- X,Y,Z Vertex 4 {m}

OS:Surface,
  {890b3cac-f7e5-4fd0-bd2d-310fdfee4c07}, !- Handle
  Surface 2,                              !- Name
  Wall,                                   !- Surface Type
  ,                                       !- Construction Name
  {00c4f53b-e7fb-42f9-8a2e-8a3b7a7c618f}, !- Space Name
  Outdoors,                               !- Outside Boundary Condition
  ,                                       !- Outside Boundary Condition Object
  SunExposed,                             !- Sun Exposure
  WindExposed,                            !- Wind Exposure
  ,                                       !- View Factor to Ground
  ,                                       !- Number of Vertices
  0, 19.9749843554382, 4,                 !- X,Y,Z Vertex 1 {m}
  0, 19.9749843554382, 0,                 !- X,Y,Z Vertex 2 {m}
  0, 0, 0,                                !- X,Y,Z Vertex 3 {m}
  0, 0, 4;                                !- X,Y,Z Vertex 4 {m}

OS:Surface,
  {97fbf37a-ad3e-468a-a1d7-93022ddb5fba}, !- Handle
  Surface 3,                              !- Name
  Wall,                                   !- Surface Type
  ,                                       !- Construction Name
  {00c4f53b-e7fb-42f9-8a2e-8a3b7a7c618f}, !- Space Name
  Surface,                                !- Outside Boundary Condition
  {135bcef5-55b7-4274-8ddb-78fd7f238e22}, !- Outside Boundary Condition Object
  NoSun,                                  !- Sun Exposure
  NoWind,                                 !- Wind Exposure
  ,                                       !- View Factor to Ground
  ,                                       !- Number of Vertices
  3, 16.9749843554382, 4,                 !- X,Y,Z Vertex 1 {m}
  3, 16.9749843554382, 0,                 !- X,Y,Z Vertex 2 {m}
  0, 19.9749843554382, 0,                 !- X,Y,Z Vertex 3 {m}
  0, 19.9749843554382, 4;                 !- X,Y,Z Vertex 4 {m}

OS:Surface,
  {7461607a-82ac-4268-97f3-afc4cab7be53}, !- Handle
  Surface 4,                              !- Name
  Wall,                                   !- Surface Type
  ,                                       !- Construction Name
  {00c4f53b-e7fb-42f9-8a2e-8a3b7a7c618f}, !- Space Name
  Surface,                                !- Outside Boundary Condition
  {d075a2d3-cb5a-4ce6-a6ce-caa7742bf69d}, !- Outside Boundary Condition Object
  NoSun,                                  !- Sun Exposure
  NoWind,                                 !- Wind Exposure
  ,                                       !- View Factor to Ground
  ,                                       !- Number of Vertices
  3, 3, 4,                                !- X,Y,Z Vertex 1 {m}
  3, 3, 0,                                !- X,Y,Z Vertex 2 {m}
  3, 16.9749843554382, 0,                 !- X,Y,Z Vertex 3 {m}
  3, 16.9749843554382, 4;                 !- X,Y,Z Vertex 4 {m}

OS:Surface,
  {e08a6404-72a7-4fe0-b678-4c557bfa3c55}, !- Handle
  Surface 5,                              !- Name
  Wall,                                   !- Surface Type
  ,                                       !- Construction Name
  {00c4f53b-e7fb-42f9-8a2e-8a3b7a7c618f}, !- Space Name
  Surface,                                !- Outside Boundary Condition
  {252cc4e9-2ab7-4915-b02c-f8307ac50547}, !- Outside Boundary Condition Object
  NoSun,                                  !- Sun Exposure
  NoWind,                                 !- Wind Exposure
  ,                                       !- View Factor to Ground
  ,                                       !- Number of Vertices
  0, 0, 4,                                !- X,Y,Z Vertex 1 {m}
  0, 0, 0,                                !- X,Y,Z Vertex 2 {m}
  3, 3, 0,                                !- X,Y,Z Vertex 3 {m}
  3, 3, 4;                                !- X,Y,Z Vertex 4 {m}

OS:Surface,
  {7ad261e0-e3a6-4aa3-b10a-c8bdfff324e6}, !- Handle
  Surface 6,                              !- Name
  RoofCeiling,                            !- Surface Type
  ,                                       !- Construction Name
  {00c4f53b-e7fb-42f9-8a2e-8a3b7a7c618f}, !- Space Name
  Outdoors,                               !- Outside Boundary Condition
  ,                                       !- Outside Boundary Condition Object
  SunExposed,                             !- Sun Exposure
  WindExposed,                            !- Wind Exposure
  ,                                       !- View Factor to Ground
  ,                                       !- Number of Vertices
  3, 3, 4,                                !- X,Y,Z Vertex 1 {m}
  3, 16.9749843554382, 4,                 !- X,Y,Z Vertex 2 {m}
  0, 19.9749843554382, 4,                 !- X,Y,Z Vertex 3 {m}
  0, 0, 4;                                !- X,Y,Z Vertex 4 {m}

OS:Space,
  {32393894-1caa-4403-b4b9-878b938f5aa8}, !- Handle
  Story 1 North Perimeter Space,          !- Name
  ,                                       !- Space Type Name
  ,                                       !- Default Construction Set Name
  ,                                       !- Default Schedule Set Name
  -0,                                     !- Direction of Relative North {deg}
  3,                                      !- X Origin {m}
  16.9749843554382,                       !- Y Origin {m}
  0,                                      !- Z Origin {m}
  {5cf6aa94-f8cf-4038-83c1-3dc30bde1613}, !- Building Story Name
  {40b853a9-4133-4eba-818a-462237158e9a}; !- Thermal Zone Name

OS:Surface,
  {bfc10ebb-6663-4bb0-be04-0945e31699b8}, !- Handle
  Surface 7,                              !- Name
  Floor,                                  !- Surface Type
  ,                                       !- Construction Name
  {32393894-1caa-4403-b4b9-878b938f5aa8}, !- Space Name
  Ground,                                 !- Outside Boundary Condition
  ,                                       !- Outside Boundary Condition Object
  NoSun,                                  !- Sun Exposure
  NoWind,                                 !- Wind Exposure
  ,                                       !- View Factor to Ground
  ,                                       !- Number of Vertices
  -3, 3.00000000000002, 0,                !- X,Y,Z Vertex 1 {m}
  16.9749843554382, 3.00000000000002, 0,  !- X,Y,Z Vertex 2 {m}
  13.9749843554382, 2.1316282072803e-14, 0, !- X,Y,Z Vertex 3 {m}
  0, 2.1316282072803e-14, 0;              !- X,Y,Z Vertex 4 {m}

OS:Surface,
  {ea662f9a-ac54-442f-8cf1-1bd3e469be14}, !- Handle
  Surface 8,                              !- Name
  Wall,                                   !- Surface Type
  ,                                       !- Construction Name
  {32393894-1caa-4403-b4b9-878b938f5aa8}, !- Space Name
  Outdoors,                               !- Outside Boundary Condition
  ,                                       !- Outside Boundary Condition Object
  SunExposed,                             !- Sun Exposure
  WindExposed,                            !- Wind Exposure
  ,                                       !- View Factor to Ground
  ,                                       !- Number of Vertices
  16.9749843554382, 3.00000000000002, 4,  !- X,Y,Z Vertex 1 {m}
  16.9749843554382, 3.00000000000002, 0,  !- X,Y,Z Vertex 2 {m}
  -3, 3.00000000000002, 0,                !- X,Y,Z Vertex 3 {m}
  -3, 3.00000000000002, 4;                !- X,Y,Z Vertex 4 {m}

OS:Surface,
  {380792ab-a259-48c9-b23f-8f79cbccf43e}, !- Handle
  Surface 9,                              !- Name
  Wall,                                   !- Surface Type
  ,                                       !- Construction Name
  {32393894-1caa-4403-b4b9-878b938f5aa8}, !- Space Name
  Surface,                                !- Outside Boundary Condition
  {a7679683-2865-4702-a493-b53b3bf4f23c}, !- Outside Boundary Condition Object
  NoSun,                                  !- Sun Exposure
  NoWind,                                 !- Wind Exposure
  ,                                       !- View Factor to Ground
  ,                                       !- Number of Vertices
  13.9749843554382, 2.1316282072803e-14, 4, !- X,Y,Z Vertex 1 {m}
  13.9749843554382, 2.1316282072803e-14, 0, !- X,Y,Z Vertex 2 {m}
  16.9749843554382, 3.00000000000002, 0,  !- X,Y,Z Vertex 3 {m}
  16.9749843554382, 3.00000000000002, 4;  !- X,Y,Z Vertex 4 {m}

OS:Surface,
  {d933ccf0-8c12-4054-879b-248d79afe07a}, !- Handle
  Surface 10,                             !- Name
  Wall,                                   !- Surface Type
  ,                                       !- Construction Name
  {32393894-1caa-4403-b4b9-878b938f5aa8}, !- Space Name
  Surface,                                !- Outside Boundary Condition
  {13e32904-ef96-47a1-a4d9-073f8f59ad2b}, !- Outside Boundary Condition Object
  NoSun,                                  !- Sun Exposure
  NoWind,                                 !- Wind Exposure
  ,                                       !- View Factor to Ground
  ,                                       !- Number of Vertices
  0, 2.1316282072803e-14, 4,              !- X,Y,Z Vertex 1 {m}
  0, 2.1316282072803e-14, 0,              !- X,Y,Z Vertex 2 {m}
  13.9749843554382, 2.1316282072803e-14, 0, !- X,Y,Z Vertex 3 {m}
  13.9749843554382, 2.1316282072803e-14, 4; !- X,Y,Z Vertex 4 {m}

OS:Surface,
  {135bcef5-55b7-4274-8ddb-78fd7f238e22}, !- Handle
  Surface 11,                             !- Name
  Wall,                                   !- Surface Type
  ,                                       !- Construction Name
  {32393894-1caa-4403-b4b9-878b938f5aa8}, !- Space Name
  Surface,                                !- Outside Boundary Condition
  {97fbf37a-ad3e-468a-a1d7-93022ddb5fba}, !- Outside Boundary Condition Object
  NoSun,                                  !- Sun Exposure
  NoWind,                                 !- Wind Exposure
  ,                                       !- View Factor to Ground
  ,                                       !- Number of Vertices
  -3, 3.00000000000002, 4,                !- X,Y,Z Vertex 1 {m}
  -3, 3.00000000000002, 0,                !- X,Y,Z Vertex 2 {m}
  0, 2.1316282072803e-14, 0,              !- X,Y,Z Vertex 3 {m}
  0, 2.1316282072803e-14, 4;              !- X,Y,Z Vertex 4 {m}

OS:Surface,
  {8a03cdb5-e93c-4b42-b771-b6c65e755e0b}, !- Handle
  Surface 12,                             !- Name
  RoofCeiling,                            !- Surface Type
  ,                                       !- Construction Name
  {32393894-1caa-4403-b4b9-878b938f5aa8}, !- Space Name
  Outdoors,                               !- Outside Boundary Condition
  ,                                       !- Outside Boundary Condition Object
  SunExposed,                             !- Sun Exposure
  WindExposed,                            !- Wind Exposure
  ,                                       !- View Factor to Ground
  ,                                       !- Number of Vertices
  0, 2.1316282072803e-14, 4,              !- X,Y,Z Vertex 1 {m}
  13.9749843554382, 2.1316282072803e-14, 4, !- X,Y,Z Vertex 2 {m}
  16.9749843554382, 3.00000000000002, 4,  !- X,Y,Z Vertex 3 {m}
  -3, 3.00000000000002, 4;                !- X,Y,Z Vertex 4 {m}

OS:Space,
  {98d1e2af-6455-4c6c-a82a-2797546394ae}, !- Handle
  Story 1 East Perimeter Space,           !- Name
  ,                                       !- Space Type Name
  ,                                       !- Default Construction Set Name
  ,                                       !- Default Schedule Set Name
  -0,                                     !- Direction of Relative North {deg}
  16.9749843554382,                       !- X Origin {m}
  3,                                      !- Y Origin {m}
  0,                                      !- Z Origin {m}
  {5cf6aa94-f8cf-4038-83c1-3dc30bde1613}, !- Building Story Name
  {18ccb353-3eb7-4902-ab63-48da3a80bc22}; !- Thermal Zone Name

OS:Surface,
  {8642e7b7-ec93-484c-911a-472695d73f33}, !- Handle
  Surface 13,                             !- Name
  Floor,                                  !- Surface Type
  ,                                       !- Construction Name
  {98d1e2af-6455-4c6c-a82a-2797546394ae}, !- Space Name
  Ground,                                 !- Outside Boundary Condition
  ,                                       !- Outside Boundary Condition Object
  NoSun,                                  !- Sun Exposure
  NoWind,                                 !- Wind Exposure
  ,                                       !- View Factor to Ground
  ,                                       !- Number of Vertices
  3.00000000000002, 16.9749843554382, 0,  !- X,Y,Z Vertex 1 {m}
  3.00000000000002, -3, 0,                !- X,Y,Z Vertex 2 {m}
  2.1316282072803e-14, 0, 0,              !- X,Y,Z Vertex 3 {m}
  2.1316282072803e-14, 13.9749843554382, 0; !- X,Y,Z Vertex 4 {m}

OS:Surface,
  {2be5d191-0caa-47f4-b5f7-682b67dc8ddf}, !- Handle
  Surface 14,                             !- Name
  Wall,                                   !- Surface Type
  ,                                       !- Construction Name
  {98d1e2af-6455-4c6c-a82a-2797546394ae}, !- Space Name
  Outdoors,                               !- Outside Boundary Condition
  ,                                       !- Outside Boundary Condition Object
  SunExposed,                             !- Sun Exposure
  WindExposed,                            !- Wind Exposure
  ,                                       !- View Factor to Ground
  ,                                       !- Number of Vertices
  3.00000000000002, -3, 4,                !- X,Y,Z Vertex 1 {m}
  3.00000000000002, -3, 0,                !- X,Y,Z Vertex 2 {m}
  3.00000000000002, 16.9749843554382, 0,  !- X,Y,Z Vertex 3 {m}
  3.00000000000002, 16.9749843554382, 4;  !- X,Y,Z Vertex 4 {m}

OS:Surface,
  {f5c71beb-7611-4e8c-bd34-ec4ee8359c58}, !- Handle
  Surface 15,                             !- Name
  Wall,                                   !- Surface Type
  ,                                       !- Construction Name
  {98d1e2af-6455-4c6c-a82a-2797546394ae}, !- Space Name
  Surface,                                !- Outside Boundary Condition
  {3a80e4a5-8b46-487c-86c0-9e5e7cf747bd}, !- Outside Boundary Condition Object
  NoSun,                                  !- Sun Exposure
  NoWind,                                 !- Wind Exposure
  ,                                       !- View Factor to Ground
  ,                                       !- Number of Vertices
  2.1316282072803e-14, 0, 4,              !- X,Y,Z Vertex 1 {m}
  2.1316282072803e-14, 0, 0,              !- X,Y,Z Vertex 2 {m}
  3.00000000000002, -3, 0,                !- X,Y,Z Vertex 3 {m}
  3.00000000000002, -3, 4;                !- X,Y,Z Vertex 4 {m}

OS:Surface,
  {8f7a0d36-ae74-40bb-81ff-b3c4a6612c52}, !- Handle
  Surface 16,                             !- Name
  Wall,                                   !- Surface Type
  ,                                       !- Construction Name
  {98d1e2af-6455-4c6c-a82a-2797546394ae}, !- Space Name
  Surface,                                !- Outside Boundary Condition
  {7c93d98c-b32c-4ac1-a714-703b1c7bfe94}, !- Outside Boundary Condition Object
  NoSun,                                  !- Sun Exposure
  NoWind,                                 !- Wind Exposure
  ,                                       !- View Factor to Ground
  ,                                       !- Number of Vertices
  2.1316282072803e-14, 13.9749843554382, 4, !- X,Y,Z Vertex 1 {m}
  2.1316282072803e-14, 13.9749843554382, 0, !- X,Y,Z Vertex 2 {m}
  2.1316282072803e-14, 0, 0,              !- X,Y,Z Vertex 3 {m}
  2.1316282072803e-14, 0, 4;              !- X,Y,Z Vertex 4 {m}

OS:Surface,
  {a7679683-2865-4702-a493-b53b3bf4f23c}, !- Handle
  Surface 17,                             !- Name
  Wall,                                   !- Surface Type
  ,                                       !- Construction Name
  {98d1e2af-6455-4c6c-a82a-2797546394ae}, !- Space Name
  Surface,                                !- Outside Boundary Condition
  {380792ab-a259-48c9-b23f-8f79cbccf43e}, !- Outside Boundary Condition Object
  NoSun,                                  !- Sun Exposure
  NoWind,                                 !- Wind Exposure
  ,                                       !- View Factor to Ground
  ,                                       !- Number of Vertices
  3.00000000000002, 16.9749843554382, 4,  !- X,Y,Z Vertex 1 {m}
  3.00000000000002, 16.9749843554382, 0,  !- X,Y,Z Vertex 2 {m}
  2.1316282072803e-14, 13.9749843554382, 0, !- X,Y,Z Vertex 3 {m}
  2.1316282072803e-14, 13.9749843554382, 4; !- X,Y,Z Vertex 4 {m}

OS:Surface,
  {ebac3078-ac61-4c35-8a21-44c268589727}, !- Handle
  Surface 18,                             !- Name
  RoofCeiling,                            !- Surface Type
  ,                                       !- Construction Name
  {98d1e2af-6455-4c6c-a82a-2797546394ae}, !- Space Name
  Outdoors,                               !- Outside Boundary Condition
  ,                                       !- Outside Boundary Condition Object
  SunExposed,                             !- Sun Exposure
  WindExposed,                            !- Wind Exposure
  ,                                       !- View Factor to Ground
  ,                                       !- Number of Vertices
  2.1316282072803e-14, 13.9749843554382, 4, !- X,Y,Z Vertex 1 {m}
  2.1316282072803e-14, 0, 4,              !- X,Y,Z Vertex 2 {m}
  3.00000000000002, -3, 4,                !- X,Y,Z Vertex 3 {m}
  3.00000000000002, 16.9749843554382, 4;  !- X,Y,Z Vertex 4 {m}

OS:Space,
  {ff343aba-70af-42a6-9a7d-f4707477ebdb}, !- Handle
  Story 1 South Perimeter Space,          !- Name
  ,                                       !- Space Type Name
  ,                                       !- Default Construction Set Name
  ,                                       !- Default Schedule Set Name
  -0,                                     !- Direction of Relative North {deg}
  0,                                      !- X Origin {m}
  0,                                      !- Y Origin {m}
  0,                                      !- Z Origin {m}
  {5cf6aa94-f8cf-4038-83c1-3dc30bde1613}, !- Building Story Name
  {4070e6c7-e910-4032-a3de-cb4b401451b3}; !- Thermal Zone Name

OS:Surface,
  {37c9376b-60d1-4641-aa60-cd046146b640}, !- Handle
  Surface 19,                             !- Name
  Floor,                                  !- Surface Type
  ,                                       !- Construction Name
  {ff343aba-70af-42a6-9a7d-f4707477ebdb}, !- Space Name
  Ground,                                 !- Outside Boundary Condition
  ,                                       !- Outside Boundary Condition Object
  NoSun,                                  !- Sun Exposure
  NoWind,                                 !- Wind Exposure
  ,                                       !- View Factor to Ground
  ,                                       !- Number of Vertices
  19.9749843554382, 0, 0,                 !- X,Y,Z Vertex 1 {m}
  0, 0, 0,                                !- X,Y,Z Vertex 2 {m}
  3, 3, 0,                                !- X,Y,Z Vertex 3 {m}
  16.9749843554382, 3, 0;                 !- X,Y,Z Vertex 4 {m}

OS:Surface,
  {6648ee4a-e176-4feb-b4c6-6f804f859cbc}, !- Handle
  Surface 20,                             !- Name
  Wall,                                   !- Surface Type
  ,                                       !- Construction Name
  {ff343aba-70af-42a6-9a7d-f4707477ebdb}, !- Space Name
  Outdoors,                               !- Outside Boundary Condition
  ,                                       !- Outside Boundary Condition Object
  SunExposed,                             !- Sun Exposure
  WindExposed,                            !- Wind Exposure
  ,                                       !- View Factor to Ground
  ,                                       !- Number of Vertices
  0, 0, 4,                                !- X,Y,Z Vertex 1 {m}
  0, 0, 0,                                !- X,Y,Z Vertex 2 {m}
  19.9749843554382, 0, 0,                 !- X,Y,Z Vertex 3 {m}
  19.9749843554382, 0, 4;                 !- X,Y,Z Vertex 4 {m}

OS:Surface,
  {252cc4e9-2ab7-4915-b02c-f8307ac50547}, !- Handle
  Surface 21,                             !- Name
  Wall,                                   !- Surface Type
  ,                                       !- Construction Name
  {ff343aba-70af-42a6-9a7d-f4707477ebdb}, !- Space Name
  Surface,                                !- Outside Boundary Condition
  {e08a6404-72a7-4fe0-b678-4c557bfa3c55}, !- Outside Boundary Condition Object
  NoSun,                                  !- Sun Exposure
  NoWind,                                 !- Wind Exposure
  ,                                       !- View Factor to Ground
  ,                                       !- Number of Vertices
  3, 3, 4,                                !- X,Y,Z Vertex 1 {m}
  3, 3, 0,                                !- X,Y,Z Vertex 2 {m}
  0, 0, 0,                                !- X,Y,Z Vertex 3 {m}
  0, 0, 4;                                !- X,Y,Z Vertex 4 {m}

OS:Surface,
  {260572b6-e0d4-4fa0-a0b1-1049929a13a6}, !- Handle
  Surface 22,                             !- Name
  Wall,                                   !- Surface Type
  ,                                       !- Construction Name
  {ff343aba-70af-42a6-9a7d-f4707477ebdb}, !- Space Name
  Surface,                                !- Outside Boundary Condition
  {b75f8c01-9914-4711-9e8a-b5294080194f}, !- Outside Boundary Condition Object
  NoSun,                                  !- Sun Exposure
  NoWind,                                 !- Wind Exposure
  ,                                       !- View Factor to Ground
  ,                                       !- Number of Vertices
  16.9749843554382, 3, 4,                 !- X,Y,Z Vertex 1 {m}
  16.9749843554382, 3, 0,                 !- X,Y,Z Vertex 2 {m}
  3, 3, 0,                                !- X,Y,Z Vertex 3 {m}
  3, 3, 4;                                !- X,Y,Z Vertex 4 {m}

OS:Surface,
  {3a80e4a5-8b46-487c-86c0-9e5e7cf747bd}, !- Handle
  Surface 23,                             !- Name
  Wall,                                   !- Surface Type
  ,                                       !- Construction Name
  {ff343aba-70af-42a6-9a7d-f4707477ebdb}, !- Space Name
  Surface,                                !- Outside Boundary Condition
  {f5c71beb-7611-4e8c-bd34-ec4ee8359c58}, !- Outside Boundary Condition Object
  NoSun,                                  !- Sun Exposure
  NoWind,                                 !- Wind Exposure
  ,                                       !- View Factor to Ground
  ,                                       !- Number of Vertices
  19.9749843554382, 0, 4,                 !- X,Y,Z Vertex 1 {m}
  19.9749843554382, 0, 0,                 !- X,Y,Z Vertex 2 {m}
  16.9749843554382, 3, 0,                 !- X,Y,Z Vertex 3 {m}
  16.9749843554382, 3, 4;                 !- X,Y,Z Vertex 4 {m}

OS:Surface,
  {0bd65ef6-e0b6-438a-be0c-ee353e81b1aa}, !- Handle
  Surface 24,                             !- Name
  RoofCeiling,                            !- Surface Type
  ,                                       !- Construction Name
  {ff343aba-70af-42a6-9a7d-f4707477ebdb}, !- Space Name
  Outdoors,                               !- Outside Boundary Condition
  ,                                       !- Outside Boundary Condition Object
  SunExposed,                             !- Sun Exposure
  WindExposed,                            !- Wind Exposure
  ,                                       !- View Factor to Ground
  ,                                       !- Number of Vertices
  16.9749843554382, 3, 4,                 !- X,Y,Z Vertex 1 {m}
  3, 3, 4,                                !- X,Y,Z Vertex 2 {m}
  0, 0, 4,                                !- X,Y,Z Vertex 3 {m}
  19.9749843554382, 0, 4;                 !- X,Y,Z Vertex 4 {m}

OS:Space,
  {6b42eb71-0917-4afe-a3f5-3d4f836e4881}, !- Handle
  Story 1 Core Space,                     !- Name
  ,                                       !- Space Type Name
  ,                                       !- Default Construction Set Name
  ,                                       !- Default Schedule Set Name
  -0,                                     !- Direction of Relative North {deg}
  3,                                      !- X Origin {m}
  3,                                      !- Y Origin {m}
  0,                                      !- Z Origin {m}
  {5cf6aa94-f8cf-4038-83c1-3dc30bde1613}, !- Building Story Name
  {a917609e-5abb-4275-8fdd-3cbc699c186f}; !- Thermal Zone Name

OS:Surface,
  {18243ad6-4b7c-4d42-87ef-07d41ed1c9f6}, !- Handle
  Surface 25,                             !- Name
  Floor,                                  !- Surface Type
  ,                                       !- Construction Name
  {6b42eb71-0917-4afe-a3f5-3d4f836e4881}, !- Space Name
  Ground,                                 !- Outside Boundary Condition
  ,                                       !- Outside Boundary Condition Object
  NoSun,                                  !- Sun Exposure
  NoWind,                                 !- Wind Exposure
  ,                                       !- View Factor to Ground
  ,                                       !- Number of Vertices
  0, 0, 0,                                !- X,Y,Z Vertex 1 {m}
  0, 13.9749843554382, 0,                 !- X,Y,Z Vertex 2 {m}
  13.9749843554382, 13.9749843554382, 0,  !- X,Y,Z Vertex 3 {m}
  13.9749843554382, 0, 0;                 !- X,Y,Z Vertex 4 {m}

OS:Surface,
  {d075a2d3-cb5a-4ce6-a6ce-caa7742bf69d}, !- Handle
  Surface 26,                             !- Name
  Wall,                                   !- Surface Type
  ,                                       !- Construction Name
  {6b42eb71-0917-4afe-a3f5-3d4f836e4881}, !- Space Name
  Surface,                                !- Outside Boundary Condition
  {7461607a-82ac-4268-97f3-afc4cab7be53}, !- Outside Boundary Condition Object
  NoSun,                                  !- Sun Exposure
  NoWind,                                 !- Wind Exposure
  ,                                       !- View Factor to Ground
  ,                                       !- Number of Vertices
  0, 13.9749843554382, 4,                 !- X,Y,Z Vertex 1 {m}
  0, 13.9749843554382, 0,                 !- X,Y,Z Vertex 2 {m}
  0, 0, 0,                                !- X,Y,Z Vertex 3 {m}
  0, 0, 4;                                !- X,Y,Z Vertex 4 {m}

OS:Surface,
  {13e32904-ef96-47a1-a4d9-073f8f59ad2b}, !- Handle
  Surface 27,                             !- Name
  Wall,                                   !- Surface Type
  ,                                       !- Construction Name
  {6b42eb71-0917-4afe-a3f5-3d4f836e4881}, !- Space Name
  Surface,                                !- Outside Boundary Condition
  {d933ccf0-8c12-4054-879b-248d79afe07a}, !- Outside Boundary Condition Object
  NoSun,                                  !- Sun Exposure
  NoWind,                                 !- Wind Exposure
  ,                                       !- View Factor to Ground
  ,                                       !- Number of Vertices
  13.9749843554382, 13.9749843554382, 4,  !- X,Y,Z Vertex 1 {m}
  13.9749843554382, 13.9749843554382, 0,  !- X,Y,Z Vertex 2 {m}
  0, 13.9749843554382, 0,                 !- X,Y,Z Vertex 3 {m}
  0, 13.9749843554382, 4;                 !- X,Y,Z Vertex 4 {m}

OS:Surface,
  {7c93d98c-b32c-4ac1-a714-703b1c7bfe94}, !- Handle
  Surface 28,                             !- Name
  Wall,                                   !- Surface Type
  ,                                       !- Construction Name