
OS:Version,
  {9a20b0c1-24ec-4009-bb50-80c5d5cb1932}, !- Handle
  0.10.0;                                 !- Version Identifier

OS:BuildingStory,
  {ffdf4485-4592-45c4-b8eb-d08fb5cf1e23}, !- Handle
  Story 1,                                !- Name
  0,                                      !- Nominal Z Coordinate {m}
  4,                                      !- Nominal Floor to Floor Height {m}
  ,                                       !- Default Construction Set Name
  ,                                       !- Default Schedule Set Name
  ;                                       !- Group Rendering Name

OS:Space,
  {a493ee49-9ccf-4aef-ae9a-44e9ce58bfd8}, !- Handle
  Story 1 West Perimeter Space,           !- Name
  ,                                       !- Space Type Name
  ,                                       !- Default Construction Set Name
  ,                                       !- Default Schedule Set Name
  -0,                                     !- Direction of Relative North {deg}
  0,                                      !- X Origin {m}
  0,                                      !- Y Origin {m}
  0,                                      !- Z Origin {m}
  {ffdf4485-4592-45c4-b8eb-d08fb5cf1e23}, !- Building Story Name
  {0014ad1a-594c-4fde-9595-2ea640d98abb}; !- Thermal Zone Name

OS:Surface,
  {34805971-4143-44f0-853a-fa67c6a4c0e2}, !- Handle
  Surface 1,                              !- Name
  Floor,                                  !- Surface Type
  ,                                       !- Construction Name
  {a493ee49-9ccf-4aef-ae9a-44e9ce58bfd8}, !- Space Name
  Ground,                                 !- Outside Boundary Condition
  ,                                       !- Outside Boundary Condition Object
  NoSun,                                  !- Sun Exposure
  NoWind,                                 !- Wind Exposure
  ,                                       !- View Factor to Ground
  ,                                       !- Number of Vertices
  0, 0, 0,                                !- X,Y,Z Vertex 1 {m}
  0, 15.8113883008419, 0,                 !- X,Y,Z Vertex 2 {m}
  3, 12.8113883008419, 0,                 !- X,Y,Z Vertex 3 {m}
  3, 3, 0;                                !- X,Y,Z Vertex 4 {m}

OS:Surface,
  {907aa674-c044-4a1b-ac20-2091c8ed22c2}, !- Handle
  Surface 2,                              !- Name
  Wall,                                   !- Surface Type
  ,                                       !- Construction Name
  {a493ee49-9ccf-4aef-ae9a-44e9ce58bfd8}, !- Space Name
  Outdoors,                               !- Outside Boundary Condition
  ,                                       !- Outside Boundary Condition Object
  SunExposed,                             !- Sun Exposure
  WindExposed,                            !- Wind Exposure
  ,                                       !- View Factor to Ground
  ,                                       !- Number of Vertices
  0, 15.8113883008419, 4,                 !- X,Y,Z Vertex 1 {m}
  0, 15.8113883008419, 0,                 !- X,Y,Z Vertex 2 {m}
  0, 0, 0,                                !- X,Y,Z Vertex 3 {m}
  0, 0, 4;                                !- X,Y,Z Vertex 4 {m}

OS:Surface,
  {0b2cfb07-58ac-458a-8795-95c47cad3124}, !- Handle
  Surface 3,                              !- Name
  Wall,                                   !- Surface Type
  ,                                       !- Construction Name
  {a493ee49-9ccf-4aef-ae9a-44e9ce58bfd8}, !- Space Name
  Surface,                                !- Outside Boundary Condition
  {019b6bbe-5b87-46a7-ae5f-48c92c2436b1}, !- Outside Boundary Condition Object
  NoSun,                                  !- Sun Exposure
  NoWind,                                 !- Wind Exposure
  ,                                       !- View Factor to Ground
  ,                                       !- Number of Vertices
  3, 12.8113883008419, 4,                 !- X,Y,Z Vertex 1 {m}
  3, 12.8113883008419, 0,                 !- X,Y,Z Vertex 2 {m}
  0, 15.8113883008419, 0,                 !- X,Y,Z Vertex 3 {m}
  0, 15.8113883008419, 4;                 !- X,Y,Z Vertex 4 {m}

OS:Surface,
  {a6fd9662-369e-4f38-a33e-1835c157a2c9}, !- Handle
  Surface 4,                              !- Name
  Wall,                                   !- Surface Type
  ,                                       !- Construction Name
  {a493ee49-9ccf-4aef-ae9a-44e9ce58bfd8}, !- Space Name
  Surface,                                !- Outside Boundary Condition
  {9327948b-c42b-43da-b847-ab255ce445dc}, !- Outside Boundary Condition Object
  NoSun,                                  !- Sun Exposure
  NoWind,                                 !- Wind Exposure
  ,                                       !- View Factor to Ground
  ,                                       !- Number of Vertices
  3, 3, 4,                                !- X,Y,Z Vertex 1 {m}
  3, 3, 0,                                !- X,Y,Z Vertex 2 {m}
  3, 12.8113883008419, 0,                 !- X,Y,Z Vertex 3 {m}
  3, 12.8113883008419, 4;                 !- X,Y,Z Vertex 4 {m}

OS:Surface,
  {a8c28d02-9c5a-4390-991c-80871073a15e}, !- Handle
  Surface 5,                              !- Name
  Wall,                                   !- Surface Type
  ,                                       !- Construction Name
  {a493ee49-9ccf-4aef-ae9a-44e9ce58bfd8}, !- Space Name
  Surface,                                !- Outside Boundary Condition
  {1ab3ec69-f49b-484b-b8bd-b9cc2f4ca09e}, !- Outside Boundary Condition Object
  NoSun,                                  !- Sun Exposure
  NoWind,                                 !- Wind Exposure
  ,                                       !- View Factor to Ground
  ,                                       !- Number of Vertices
  0, 0, 4,                                !- X,Y,Z Vertex 1 {m}
  0, 0, 0,                                !- X,Y,Z Vertex 2 {m}
  3, 3, 0,                                !- X,Y,Z Vertex 3 {m}
  3, 3, 4;                                !- X,Y,Z Vertex 4 {m}

OS:Surface,
  {ace501e3-cb38-45a0-bc7e-1128816fd25d}, !- Handle
  Surface 6,                              !- Name
  RoofCeiling,                            !- Surface Type
  ,                                       !- Construction Name
  {a493ee49-9ccf-4aef-ae9a-44e9ce58bfd8}, !- Space Name
  Surface,                                !- Outside Boundary Condition
  {10252a29-6e4b-437d-9ff6-9fd7f84a5650}, !- Outside Boundary Condition Object
  NoSun,                                  !- Sun Exposure
  NoWind,                                 !- Wind Exposure
  ,                                       !- View Factor to Ground
  ,                                       !- Number of Vertices
  3, 3, 4,                                !- X,Y,Z Vertex 1 {m}
  3, 12.8113883008419, 4,                 !- X,Y,Z Vertex 2 {m}
  0, 15.8113883008419, 4,                 !- X,Y,Z Vertex 3 {m}
  0, 0, 4;                                !- X,Y,Z Vertex 4 {m}

OS:Space,
  {166eb051-26e4-424c-81a3-a5a400589bfd}, !- Handle
  Story 1 North Perimeter Space,          !- Name
  ,                                       !- Space Type Name
  ,                                       !- Default Construction Set Name
  ,                                       !- Default Schedule Set Name
  -0,                                     !- Direction of Relative North {deg}
  3,                                      !- X Origin {m}
  12.8113883008419,                       !- Y Origin {m}
  0,                                      !- Z Origin {m}
  {ffdf4485-4592-45c4-b8eb-d08fb5cf1e23}, !- Building Story Name
  {e48b6e43-04b1-49ea-8670-3b021f4187a1}; !- Thermal Zone Name

OS:Surface,
  {8a756ebe-6a6b-41b2-b4d4-e8ef1a99ffac}, !- Handle
  Surface 7,                              !- Name
  Floor,                                  !- Surface Type
  ,                                       !- Construction Name
  {166eb051-26e4-424c-81a3-a5a400589bfd}, !- Space Name
  Ground,                                 !- Outside Boundary Condition
  ,                                       !- Outside Boundary Condition Object
  NoSun,                                  !- Sun Exposure
  NoWind,                                 !- Wind Exposure
  ,                                       !- View Factor to Ground
  ,                                       !- Number of Vertices
  -3, 3, 0,                               !- X,Y,Z Vertex 1 {m}
  12.8113883008419, 3, 0,                 !- X,Y,Z Vertex 2 {m}
  9.8113883008419, 3.5527136788005e-15, 0, !- X,Y,Z Vertex 3 {m}
  0, 3.5527136788005e-15, 0;              !- X,Y,Z Vertex 4 {m}

OS:Surface,
  {5a67c42c-eb30-4232-bdd3-6004fbc2cd06}, !- Handle
  Surface 8,                              !- Name
  Wall,                                   !- Surface Type
  ,                                       !- Construction Name
  {166eb051-26e4-424c-81a3-a5a400589bfd}, !- Space Name
  Outdoors,                               !- Outside Boundary Condition
  ,                                       !- Outside Boundary Condition Object
  SunExposed,                             !- Sun Exposure
  WindExposed,                            !- Wind Exposure
  ,                                       !- View Factor to Ground
  ,                                       !- Number of Vertices
  12.8113883008419, 3, 4,                 !- X,Y,Z Vertex 1 {m}
  12.8113883008419, 3, 0,                 !- X,Y,Z Vertex 2 {m}
  -3, 3, 0,                               !- X,Y,Z Vertex 3 {m}
  -3, 3, 4;                               !- X,Y,Z Vertex 4 {m}

OS:Surface,
  {b6b9c99a-3206-4649-a843-21eec052c6fd}, !- Handle
  Surface 9,                              !- Name
  Wall,                                   !- Surface Type
  ,                                       !- Construction Name
  {166eb051-26e4-424c-81a3-a5a400589bfd}, !- Space Name
  Surface,                                !- Outside Boundary Condition
  {99b0d6c9-ce17-44ea-a609-2a8543e1af46}, !- Outside Boundary Condition Object
  NoSun,                                  !- Sun Exposure
  NoWind,                                 !- Wind Exposure
  ,                                       !- View Factor to Ground
  ,                                       !- Number of Vertices
  9.8113883008419, 3.5527136788005e-15, 4, !- X,Y,Z Vertex 1 {m}
  9.8113883008419, 3.5527136788005e-15, 0, !- X,Y,Z Vertex 2 {m}
  12.8113883008419, 3, 0,                 !- X,Y,Z Vertex 3 {m}
  12.8113883008419, 3, 4;                 !- X,Y,Z Vertex 4 {m}

OS:Surface,
  {21470f26-5965-4535-9287-9620a078215f}, !- Handle
  Surface 10,                             !- Name
  Wall,                                   !- Surface Type
  ,                                       !- Construction Name
  {166eb051-26e4-424c-81a3-a5a400589bfd}, !- Space Name
  Surface,                                !- Outside Boundary Condition
  {13a940a6-0b80-4617-9498-afa797270e01}, !- Outside Boundary Condition Object
  NoSun,                                  !- Sun Exposure
  NoWind,                                 !- Wind Exposure
  ,                                       !- View Factor to Ground
  ,                                       !- Number of Vertices
  0, 3.5527136788005e-15, 4,              !- X,Y,Z Vertex 1 {m}
  0, 3.5527136788005e-15, 0,              !- X,Y,Z Vertex 2 {m}
  9.8113883008419, 3.5527136788005e-15, 0, !- X,Y,Z Vertex 3 {m}
  9.8113883008419, 3.5527136788005e-15, 4; !- X,Y,Z Vertex 4 {m}

OS:Surface,
  {019b6bbe-5b87-46a7-ae5f-48c92c2436b1}, !- Handle
  Surface 11,                             !- Name
  Wall,                                   !- Surface Type
  ,                                       !- Construction Name
  {166eb051-26e4-424c-81a3-a5a400589bfd}, !- Space Name
  Surface,                                !- Outside Boundary Condition
  {0b2cfb07-58ac-458a-8795-95c47cad3124}, !- Outside Boundary Condition Object
  NoSun,                                  !- Sun Exposure
  NoWind,                                 !- Wind Exposure
  ,                                       !- View Factor to Ground
  ,                                       !- Number of Vertices
  -3, 3, 4,                               !- X,Y,Z Vertex 1 {m}
  -3, 3, 0,                               !- X,Y,Z Vertex 2 {m}
  0, 3.5527136788005e-15, 0,              !- X,Y,Z Vertex 3 {m}
  0, 3.5527136788005e-15, 4;              !- X,Y,Z Vertex 4 {m}

OS:Surface,
  {e83879de-1a36-46fc-a337-d807d8652443}, !- Handle
  Surface 12,                             !- Name
  RoofCeiling,                            !- Surface Type
  ,                                       !- Construction Name
  {166eb051-26e4-424c-81a3-a5a400589bfd}, !- Space Name
  Surface,                                !- Outside Boundary Condition
  {6ad750da-0210-4a71-974e-d3f9d238200f}, !- Outside Boundary Condition Object
  NoSun,                                  !- Sun Exposure
  NoWind,                                 !- Wind Exposure
  ,                                       !- View Factor to Ground
  ,                                       !- Number of Vertices
  0, 3.5527136788005e-15, 4,              !- X,Y,Z Vertex 1 {m}
  9.8113883008419, 3.5527136788005e-15, 4, !- X,Y,Z Vertex 2 {m}
  12.8113883008419, 3, 4,                 !- X,Y,Z Vertex 3 {m}
  -3, 3, 4;                               !- X,Y,Z Vertex 4 {m}

OS:Space,
  {51ff3483-e0a5-4300-9584-7e80128a4053}, !- Handle
  Story 1 East Perimeter Space,           !- Name
  ,                                       !- Space Type Name
  ,                                       !- Default Construction Set Name
  ,                                       !- Default Schedule Set Name
  -0,                                     !- Direction of Relative North {deg}
  12.8113883008419,                       !- X Origin {m}
  3,                                      !- Y Origin {m}
  0,                                      !- Z Origin {m}
  {ffdf4485-4592-45c4-b8eb-d08fb5cf1e23}, !- Building Story Name
  {8caf2639-ae3e-470f-92ac-85e08b9f50f7}; !- Thermal Zone Name

OS:Surface,
  {d08247ca-45e9-42bd-a7b8-815cef7910d7}, !- Handle
  Surface 13,                             !- Name
  Floor,                                  !- Surface Type
  ,                                       !- Construction Name
  {51ff3483-e0a5-4300-9584-7e80128a4053}, !- Space Name
  Ground,                                 !- Outside Boundary Condition
  ,                                       !- Outside Boundary Condition Object
  NoSun,                                  !- Sun Exposure
  NoWind,                                 !- Wind Exposure
  ,                                       !- View Factor to Ground
  ,                                       !- Number of Vertices
  3, 12.8113883008419, 0,                 !- X,Y,Z Vertex 1 {m}
  3, -3, 0,                               !- X,Y,Z Vertex 2 {m}
  3.5527136788005e-15, 0, 0,              !- X,Y,Z Vertex 3 {m}
  3.5527136788005e-15, 9.8113883008419, 0; !- X,Y,Z Vertex 4 {m}

OS:Surface,
  {c493bc19-dcf8-468b-8083-1ce3453cf8ab}, !- Handle
  Surface 14,                             !- Name
  Wall,                                   !- Surface Type
  ,                                       !- Construction Name
  {51ff3483-e0a5-4300-9584-7e80128a4053}, !- Space Name
  Outdoors,                               !- Outside Boundary Condition
  ,                                       !- Outside Boundary Condition Object
  SunExposed,                             !- Sun Exposure
  WindExposed,                            !- Wind Exposure
  ,                                       !- View Factor to Ground
  ,                                       !- Number of Vertices
  3, -3, 4,                               !- X,Y,Z Vertex 1 {m}
  3, -3, 0,                               !- X,Y,Z Vertex 2 {m}
  3, 12.8113883008419, 0,                 !- X,Y,Z Vertex 3 {m}
  3, 12.8113883008419, 4;                 !- X,Y,Z Vertex 4 {m}

OS:Surface,
  {1a15933c-4cce-4648-98c9-b81e779ceaa8}, !- Handle
  Surface 15,                             !- Name
  Wall,                                   !- Surface Type
  ,                                       !- Construction Name
  {51ff3483-e0a5-4300-9584-7e80128a4053}, !- Space Name
  Surface,                                !- Outside Boundary Condition
  {c56da80b-e180-440f-8ce6-0972a18d5e58}, !- Outside Boundary Condition Object
  NoSun,                                  !- Sun Exposure
  NoWind,                                 !- Wind Exposure
  ,                                       !- View Factor to Ground
  ,                                       !- Number of Vertices
  3.5527136788005e-15, 0, 4,              !- X,Y,Z Vertex 1 {m}
  3.5527136788005e-15, 0, 0,              !- X,Y,Z Vertex 2 {m}
  3, -3, 0,                               !- X,Y,Z Vertex 3 {m}
  3, -3, 4;                               !- X,Y,Z Vertex 4 {m}

OS:Surface,
  {15d40ec2-f04b-46f9-ab53-91179fc2fca1}, !- Handle
  Surface 16,                             !- Name
  Wall,                                   !- Surface Type
  ,                                       !- Construction Name
  {51ff3483-e0a5-4300-9584-7e80128a4053}, !- Space Name
  Surface,                                !- Outside Boundary Condition
  {6f5fe991-ba56-4936-8392-da0831fb312a}, !- Outside Boundary Condition Object
  NoSun,                                  !- Sun Exposure
  NoWind,                                 !- Wind Exposure
  ,                                       !- View Factor to Ground
  ,                                       !- Number of Vertices
  3.5527136788005e-15, 9.8113883008419, 4, !- X,Y,Z Vertex 1 {m}
  3.5527136788005e-15, 9.8113883008419, 0, !- X,Y,Z Vertex 2 {m}
  3.5527136788005e-15, 0, 0,              !- X,Y,Z Vertex 3 {m}
  3.5527136788005e-15, 0, 4;              !- X,Y,Z Vertex 4 {m}

OS:Surface,
  {99b0d6c9-ce17-44ea-a609-2a8543e1af46}, !- Handle
  Surface 17,                             !- Name
  Wall,                                   !- Surface Type
  ,                                       !- Construction Name
  {51ff3483-e0a5-4300-9584-7e80128a4053}, !- Space Name
  Surface,                                !- Outside Boundary Condition
  {b6b9c99a-3206-4649-a843-21eec052c6fd}, !- Outside Boundary Condition Object
  NoSun,                                  !- Sun Exposure
  NoWind,                                 !- Wind Exposure
  ,                                       !- View Factor to Ground
  ,                                       !- Number of Vertices
  3, 12.8113883008419, 4,                 !- X,Y,Z Vertex 1 {m}
  3, 12.8113883008419, 0,                 !- X,Y,Z Vertex 2 {m}
  3.5527136788005e-15, 9.8113883008419, 0, !- X,Y,Z Vertex 3 {m}
  3.5527136788005e-15, 9.8113883008419, 4; !- X,Y,Z Vertex 4 {m}

OS:Surface,
  {f38120e9-8aa1-4dbc-88c8-9662beb26ae9}, !- Handle
  Surface 18,                             !- Name
  RoofCeiling,                            !- Surface Type
  ,                                       !- Construction Name
  {51ff3483-e0a5-4300-9584-7e80128a4053}, !- Space Name
  Surface,                                !- Outside Boundary Condition
  {aaf576c6-5df3-43b1-83cd-42955d2c7af9}, !- Outside Boundary Condition Object
  NoSun,                                  !- Sun Exposure
  NoWind,                                 !- Wind Exposure
  ,                                       !- View Factor to Ground
  ,                                       !- Number of Vertices
  3.5527136788005e-15, 9.8113883008419, 4, !- X,Y,Z Vertex 1 {m}
  3.5527136788005e-15, 0, 4,              !- X,Y,Z Vertex 2 {m}
  3, -3, 4,                               !- X,Y,Z Vertex 3 {m}
  3, 12.8113883008419, 4;                 !- X,Y,Z Vertex 4 {m}

OS:Space,
  {85e6894a-db4d-4cd1-bdd8-9d37b81cb83f}, !- Handle
  Story 1 South Perimeter Space,          !- Name
  ,                                       !- Space Type Name
  ,                                       !- Default Construction Set Name
  ,                                       !- Default Schedule Set Name
  -0,                                     !- Direction of Relative North {deg}
  0,                                      !- X Origin {m}
  0,                                      !- Y Origin {m}
  0,                                      !- Z Origin {m}
  {ffdf4485-4592-45c4-b8eb-d08fb5cf1e23}, !- Building Story Name
  {d655d38b-8600-4c9c-adf6-055a95fc5d64}; !- Thermal Zone Name

OS:Surface,
  {ead655e1-0925-46cf-af74-7e7238a22984}, !- Handle
  Surface 19,                             !- Name
  Floor,                                  !- Surface Type
  ,                                       !- Construction Name
  {85e6894a-db4d-4cd1-bdd8-9d37b81cb83f}, !- Space Name
  Ground,                                 !- Outside Boundary Condition
  ,                                       !- Outside Boundary Condition Object
  NoSun,                                  !- Sun Exposure
  NoWind,                                 !- Wind Exposure
  ,                                       !- View Factor to Ground
  ,                                       !- Number of Vertices
  15.8113883008419, 0, 0,                 !- X,Y,Z Vertex 1 {m}
  0, 0, 0,                                !- X,Y,Z Vertex 2 {m}
  3, 3, 0,                                !- X,Y,Z Vertex 3 {m}
  12.8113883008419, 3, 0;                 !- X,Y,Z Vertex 4 {m}

OS:Surface,
  {f41e1d26-041a-4abc-9967-21eaadfd678c}, !- Handle
  Surface 20,                             !- Name
  Wall,                                   !- Surface Type
  ,                                       !- Construction Name
  {85e6894a-db4d-4cd1-bdd8-9d37b81cb83f}, !- Space Name
  Outdoors,                               !- Outside Boundary Condition
  ,                                       !- Outside Boundary Condition Object
  SunExposed,                             !- Sun Exposure
  WindExposed,                            !- Wind Exposure
  ,                                       !- View Factor to Ground
  ,                                       !- Number of Vertices
  0, 0, 4,                                !- X,Y,Z Vertex 1 {m}
  0, 0, 0,                                !- X,Y,Z Vertex 2 {m}
  15.8113883008419, 0, 0,                 !- X,Y,Z Vertex 3 {m}
  15.8113883008419, 0, 4;                 !- X,Y,Z Vertex 4 {m}

OS:Surface,
  {1ab3ec69-f49b-484b-b8bd-b9cc2f4ca09e}, !- Handle
  Surface 21,                             !- Name
  Wall,                                   !- Surface Type
  ,                                       !- Construction Name
  {85e6894a-db4d-4cd1-bdd8-9d37b81cb83f}, !- Space Name
  Surface,                                !- Outside Boundary Condition
  {a8c28d02-9c5a-4390-991c-80871073a15e}, !- Outside Boundary Condition Object
  NoSun,                                  !- Sun Exposure
  NoWind,                                 !- Wind Exposure
  ,                                       !- View Factor to Ground
  ,                                       !- Number of Vertices
  3, 3, 4,                                !- X,Y,Z Vertex 1 {m}
  3, 3, 0,                                !- X,Y,Z Vertex 2 {m}
  0, 0, 0,                                !- X,Y,Z Vertex 3 {m}
  0, 0, 4;                                !- X,Y,Z Vertex 4 {m}

OS:Surface,
  {33c7007c-6640-44eb-ae05-ce643659ef0d}, !- Handle
  Surface 22,                             !- Name
  Wall,                                   !- Surface Type
  ,                                       !- Construction Name
  {85e6894a-db4d-4cd1-bdd8-9d37b81cb83f}, !- Space Name
  Surface,                                !- Outside Boundary Condition
  {f917aa2a-5d03-4bb7-80b8-4805b6581c3c}, !- Outside Boundary Condition Object
  NoSun,                                  !- Sun Exposure
  NoWind,                                 !- Wind Exposure
  ,                                       !- View Factor to Ground
  ,                                       !- Number of Vertices
  12.8113883008419, 3, 4,                 !- X,Y,Z Vertex 1 {m}
  12.8113883008419, 3, 0,                 !- X,Y,Z Vertex 2 {m}
  3, 3, 0,                                !- X,Y,Z Vertex 3 {m}
  3, 3, 4;                                !- X,Y,Z Vertex 4 {m}

OS:Surface,
  {c56da80b-e180-440f-8ce6-0972a18d5e58}, !- Handle
  Surface 23,                             !- Name
  Wall,                                   !- Surface Type
  ,                                       !- Construction Name
  {85e6894a-db4d-4cd1-bdd8-9d37b81cb83f}, !- Space Name
  Surface,                                !- Outside Boundary Condition
  {1a15933c-4cce-4648-98c9-b81e779ceaa8}, !- Outside Boundary Condition Object
  NoSun,                                  !- Sun Exposure
  NoWind,                                 !- Wind Exposure
  ,                                       !- View Factor to Ground
  ,                                       !- Number of Vertices
  15.8113883008419, 0, 4,                 !- X,Y,Z Vertex 1 {m}
  15.8113883008419, 0, 0,                 !- X,Y,Z Vertex 2 {m}
  12.8113883008419, 3, 0,                 !- X,Y,Z Vertex 3 {m}
  12.8113883008419, 3, 4;                 !- X,Y,Z Vertex 4 {m}

OS:Surface,
  {1007ca4a-908e-405a-bfc1-ea1caf1058e2}, !- Handle
  Surface 24,                             !- Name
  RoofCeiling,                            !- Surface Type
  ,                                       !- Construction Name
  {85e6894a-db4d-4cd1-bdd8-9d37b81cb83f}, !- Space Name
  Surface,                                !- Outside Boundary Condition
  {8afef00f-3423-4ac0-b9a5-c0f00c837d10}, !- Outside Boundary Condition Object
  NoSun,                                  !- Sun Exposure
  NoWind,                                 !- Wind Exposure
  ,                                       !- View Factor to Ground
  ,                                       !- Number of Vertices
  12.8113883008419, 3, 4,                 !- X,Y,Z Vertex 1 {m}
  3, 3, 4,                                !- X,Y,Z Vertex 2 {m}
  0, 0, 4,                                !- X,Y,Z Vertex 3 {m}
  15.8113883008419, 0, 4;                 !- X,Y,Z Vertex 4 {m}

OS:Space,
  {ef2ab070-7eb9-47cc-9cb9-9914f7f80d63}, !- Handle
  Story 1 Core Space,                     !- Name
  ,                                       !- Space Type Name
  ,                                       !- Default Construction Set Name
  ,                                       !- Default Schedule Set Name
  -0,                                     !- Direction of Relative North {deg}
  3,                                      !- X Origin {m}
  3,                                      !- Y Origin {m}
  0,                                      !- Z Origin {m}
  {ffdf4485-4592-45c4-b8eb-d08fb5cf1e23}, !- Building Story Name
  {5d82f3c1-5f62-4605-b425-0a0b636ec4b0}; !- Thermal Zone Name

OS:Surface,
  {9e99670d-701f-45ad-991f-f56b26c22f6a}, !- Handle
  Surface 25,                             !- Name
  Floor,                                  !- Surface Type
  ,                                       !- Construction Name
  {ef2ab070-7eb9-47cc-9cb9-9914f7f80d63}, !- Space Name
  Ground,                                 !- Outside Boundary Condition
  ,                                       !- Outside Boundary Condition Object
  NoSun,                                  !- Sun Exposure
  NoWind,                                 !- Wind Exposure
  ,                                       !- View Factor to Ground
  ,                                       !- Number of Vertices
  0, 0, 0,                                !- X,Y,Z Vertex 1 {m}
  0, 9.8113883008419, 0,                  !- X,Y,Z Vertex 2 {m}
  9.8113883008419, 9.8113883008419, 0,    !- X,Y,Z Vertex 3 {m}
  9.8113883008419, 0, 0;                  !- X,Y,Z Vertex 4 {m}

OS:Surface,
  {9327948b-c42b-43da-b847-ab255ce445dc}, !- Handle
  Surface 26,                             !- Name
  Wall,                                   !- Surface Type
  ,                                       !- Construction Name
  {ef2ab070-7eb9-47cc-9cb9-9914f7f80d63}, !- Space Name
  Surface,                                !- Outside Boundary Condition
  {a6fd9662-369e-4f38-a33e-1835c157a2c9}, !- Outside Boundary Condition Object
  NoSun,                                  !- Sun Exposure
  NoWind,                                 !- Wind Exposure
  ,                                       !- View Factor to Ground
  ,                                       !- Number of Vertices
  0, 9.8113883008419, 4,                  !- X,Y,Z Vertex 1 {m}
  0, 9.8113883008419, 0,                  !- X,Y,Z Vertex 2 {m}
  0, 0, 0,                                !- X,Y,Z Vertex 3 {m}
  0, 0, 4;                                !- X,Y,Z Vertex 4 {m}

OS:Surface,
  {13a940a6-0b80-4617-9498-afa797270e01}, !- Handle
  Surface 27,                             !- Name
  Wall,                                   !- Surface Type
  ,                                       !- Construction Name
  {ef2ab070-7eb9-47cc-9cb9-9914f7f80d63}, !- Space Name
  Surface,                                !- Outside Boundary Condition
  {21470f26-5965-4535-9287-9620a078215f}, !- Outside Boundary Condition Object
  NoSun,                                  !- Sun Exposure
  NoWind,                                 !- Wind Exposure
  ,                                       !- View Factor to Ground
  ,                                       !- Number of Vertices
  9.8113883008419, 9.8113883008419, 4,    !- X,Y,Z Vertex 1 {m}
  9.8113883008419, 9.8113883008419, 0,    !- X,Y,Z Vertex 2 {m}
  0, 9.8113883008419, 0,                  !- X,Y,Z Vertex 3 {m}
  0, 9.8113883008419, 4;                  !- X,Y,Z Vertex 4 {m}

OS:Surface,
  {6f5fe991-ba56-4936-8392-da0831fb312a}, !- Handle
  Surface 28,                             !- Name
  Wall,                                   !- Surface Type
  ,                                       !- Construction Name
  {ef2ab070-7eb9-47cc-9cb9-9914f7f80d63}, !- Space Name