
OS:Version,
  {6b18ff87-11d0-42e4-8fce-17e112c65ba7}, !- Handle
  0.10.0;                                 !- Version Identifier

OS:BuildingStory,
  {ec5b3496-446a-4da9-aadc-b2899bc1b6e9}, !- Handle
  Story 1,                                !- Name
  0,                                      !- Nominal Z Coordinate {m}
  4,                                      !- Nominal Floor to Floor Height {m}
  ,                                       !- Default Construction Set Name
  ,                                       !- Default Schedule Set Name
  ;                                       !- Group Rendering Name

OS:Space,
  {acf0f298-cb29-402f-8b2b-f0db2a8f8c76}, !- Handle
  Story 1 West Perimeter Space,           !- Name
  ,                                       !- Space Type Name
  ,                                       !- Default Construction Set Name
  ,                                       !- Default Schedule Set Name
  -0,                                     !- Direction of Relative North {deg}
  0,                                      !- X Origin {m}
  0,                                      !- Y Origin {m}
  0,                                      !- Z Origin {m}
  {ec5b3496-446a-4da9-aadc-b2899bc1b6e9}, !- Building Story Name
  {8b3205d0-3026-43ed-872a-803a5d097534}; !- Thermal Zone Name

OS:Surface,
  {e2f739a3-e82b-4e8f-bbcd-93f5ea02567e}, !- Handle
  Surface 1,                              !- Name
  Floor,                                  !- Surface Type
  ,                                       !- Construction Name
  {acf0f298-cb29-402f-8b2b-f0db2a8f8c76}, !- Space Name
  Ground,                                 !- Outside Boundary Condition
  ,                                       !- Outside Boundary Condition Object
  NoSun,                                  !- Sun Exposure
  NoWind,                                 !- Wind Exposure
  ,                                       !- View Factor to Ground
  ,                                       !- Number of Vertices
  0, 0, 0,                                !- X,Y,Z Vertex 1 {m}
  0, 23.8537208837531, 0,                 !- X,Y,Z Vertex 2 {m}
  3, 20.8537208837531, 0,                 !- X,Y,Z Vertex 3 {m}
  3, 3, 0;                                !- X,Y,Z Vertex 4 {m}

OS:Surface,
  {f924897b-bf1c-46d1-825e-59b14370f345}, !- Handle
  Surface 2,                              !- Name
  Wall,                                   !- Surface Type
  ,                                       !- Construction Name
  {acf0f298-cb29-402f-8b2b-f0db2a8f8c76}, !- Space Name
  Outdoors,                               !- Outside Boundary Condition
  ,                                       !- Outside Boundary Condition Object
  SunExposed,                             !- Sun Exposure
  WindExposed,                            !- Wind Exposure
  ,                                       !- View Factor to Ground
  ,                                       !- Number of Vertices
  0, 23.8537208837531, 4,                 !- X,Y,Z Vertex 1 {m}
  0, 23.8537208837531, 0,                 !- X,Y,Z Vertex 2 {m}
  0, 0, 0,                                !- X,Y,Z Vertex 3 {m}
  0, 0, 4;                                !- X,Y,Z Vertex 4 {m}

OS:Surface,
  {8c7b09c9-9042-4ff5-a77b-e55a04f464f7}, !- Handle
  Surface 3,                              !- Name
  Wall,                                   !- Surface Type
  ,                                       !- Construction Name
  {acf0f298-cb29-402f-8b2b-f0db2a8f8c76}, !- Space Name
  Surface,                                !- Outside Boundary Condition
  {4f37eef2-a556-49e9-b34f-7ef55483c850}, !- Outside Boundary Condition Object
  NoSun,                                  !- Sun Exposure
  NoWind,                                 !- Wind Exposure
  ,                                       !- View Factor to Ground
  ,                                       !- Number of Vertices
  3, 20.8537208837531, 4,                 !- X,Y,Z Vertex 1 {m}
  3, 20.8537208837531, 0,                 !- X,Y,Z Vertex 2 {m}
  0, 23.8537208837531, 0,                 !- X,Y,Z Vertex 3 {m}
  0, 23.8537208837531, 4;                 !- X,Y,Z Vertex 4 {m}

OS:Surface,
  {50799df5-3cbc-4bf3-b1d4-361c5503c14c}, !- Handle
  Surface 4,                              !- Name
  Wall,                                   !- Surface Type
  ,                                       !- Construction Name
  {acf0f298-cb29-402f-8b2b-f0db2a8f8c76}, !- Space Name
  Surface,                                !- Outside Boundary Condition
  {ee57a248-902f-46b8-9412-eb75b2d39120}, !- Outside Boundary Condition Object
  NoSun,                                  !- Sun Exposure
  NoWind,                                 !- Wind Exposure
  ,                                       !- View Factor to Ground
  ,                                       !- Number of Vertices
  3, 3, 4,                                !- X,Y,Z Vertex 1 {m}
  3, 3, 0,                                !- X,Y,Z Vertex 2 {m}
  3, 20.8537208837531, 0,                 !- X,Y,Z Vertex 3 {m}
  3, 20.8537208837531, 4;                 !- X,Y,Z Vertex 4 {m}

OS:Surface,
  {6cd8b90f-3467-4637-9fbe-cc7073c10d47}, !- Handle
  Surface 5,                              !- Name
  Wall,                                   !- Surface Type
  ,                                       !- Construction Name
  {acf0f298-cb29-402f-8b2b-f0db2a8f8c76}, !- Space Name
  Surface,                                !- Outside Boundary Condition
  {f5de3b8e-408e-4038-a4d2-cb89cffc8f3a}, !- Outside Boundary Condition Object
  NoSun,                                  !- Sun Exposure
  NoWind,                                 !- Wind Exposure
  ,                                       !- View Factor to Ground
  ,                                       !- Number of Vertices
  0, 0, 4,                                !- X,Y,Z Vertex 1 {m}
  0, 0, 0,                                !- X,Y,Z Vertex 2 {m}
  3, 3, 0,                                !- X,Y,Z Vertex 3 {m}
  3, 3, 4;                                !- X,Y,Z Vertex 4 {m}

OS:Surface,
  {a03fd895-ab0d-41e6-964e-af553b7f548d}, !- Handle
  Surface 6,                              !- Name
  RoofCeiling,                            !- Surface Type
  ,                                       !- Construction Name
  {acf0f298-cb29-402f-8b2b-f0db2a8f8c76}, !- Space Name
  Outdoors,                               !- Outside Boundary Condition
  ,                                       !- Outside Boundary Condition Object
  SunExposed,                             !- Sun Exposure
  WindExposed,                            !- Wind Exposure
  ,                                       !- View Factor to Ground
  ,                                       !- Number of Vertices
  3, 3, 4,                                !- X,Y,Z Vertex 1 {m}
  3, 20.8537208837531, 4,                 !- X,Y,Z Vertex 2 {m}
  0, 23.8537208837531, 4,                 !- X,Y,Z Vertex 3 {m}
  0, 0, 4;                                !- X,Y,Z Vertex 4 {m}

OS:Space,
  {6834be61-8243-45da-9273-bd63c9d12ed1}, !- Handle
  Story 1 North Perimeter Space,          !- Name
  ,                                       !- Space Type Name
  ,                                       !- Default Construction Set Name
  ,                                       !- Default Schedule Set Name
  -0,                                     !- Direction of Relative North {deg}
  3,                                      !- X Origin {m}
  20.8537208837531,                       !- Y Origin {m}
  0,                                      !- Z Origin {m}
  {ec5b3496-446a-4da9-aadc-b2899bc1b6e9}, !- Building Story Name
  {9e43ce65-e668-4222-b108-b6ad3bddaab9}; !- Thermal Zone Name

OS:Surface,
  {9f0280b2-fa32-4ec2-a039-928ac682e59f}, !- Handle
  Surface 7,                              !- Name
  Floor,                                  !- Surface Type
  ,                                       !- Construction Name
  {6834be61-8243-45da-9273-bd63c9d12ed1}, !- Space Name
  Ground,                                 !- Outside Boundary Condition
  ,                                       !- Outside Boundary Condition Object
  NoSun,                                  !- Sun Exposure
  NoWind,                                 !- Wind Exposure
  ,                                       !- View Factor to Ground
  ,                                       !- Number of Vertices
  -3, 2.99999999999997, 0,                !- X,Y,Z Vertex 1 {m}
  20.8537208837531, 2.99999999999997, 0,  !- X,Y,Z Vertex 2 {m}
  17.8537208837531, -2.8421709430404e-14, 0, !- X,Y,Z Vertex 3 {m}
  0, -2.8421709430404e-14, 0;             !- X,Y,Z Vertex 4 {m}

OS:Surface,
  {87edf2c5-645e-4ebc-87b5-4d7e50ab536c}, !- Handle
  Surface 8,                              !- Name
  Wall,                                   !- Surface Type
  ,                                       !- Construction Name
  {6834be61-8243-45da-9273-bd63c9d12ed1}, !- Space Name
  Outdoors,                               !- Outside Boundary Condition
  ,                                       !- Outside Boundary Condition Object
  SunExposed,                             !- Sun Exposure
  WindExposed,                            !- Wind Exposure
  ,                                       !- View Factor to Ground
  ,                                       !- Number of Vertices
  20.8537208837531, 2.99999999999997, 4,  !- X,Y,Z Vertex 1 {m}
  20.8537208837531, 2.99999999999997, 0,  !- X,Y,Z Vertex 2 {m}
  -3, 2.99999999999997, 0,                !- X,Y,Z Vertex 3 {m}
  -3, 2.99999999999997, 4;                !- X,Y,Z Vertex 4 {m}

OS:Surface,
  {4f54f792-38f2-43d9-a28a-16cf64a50976}, !- Handle
  Surface 9,                              !- Name
  Wall,                                   !- Surface Type
  ,                                       !- Construction Name
  {6834be61-8243-45da-9273-bd63c9d12ed1}, !- Space Name
  Surface,                                !- Outside Boundary Condition
  {a27029c5-cc71-490b-ab08-f068f8554f38}, !- Outside Boundary Condition Object
  NoSun,                                  !- Sun Exposure
  NoWind,                                 !- Wind Exposure
  ,                                       !- View Factor to Ground
  ,                                       !- Number of Vertices
  17.8537208837531, -2.8421709430404e-14, 4, !- X,Y,Z Vertex 1 {m}
  17.8537208837531, -2.8421709430404e-14, 0, !- X,Y,Z Vertex 2 {m}
  20.8537208837531, 2.99999999999997, 0,  !- X,Y,Z Vertex 3 {m}
  20.8537208837531, 2.99999999999997, 4;  !- X,Y,Z Vertex 4 {m}

OS:Surface,
  {cd477128-41c4-448d-b2c6-c36dfe4a514a}, !- Handle
  Surface 10,                             !- Name
  Wall,                                   !- Surface Type
  ,                                       !- Construction Name
  {6834be61-8243-45da-9273-bd63c9d12ed1}, !- Space Name
  Surface,                                !- Outside Boundary Condition
  {33474d30-c637-4980-ab4d-33dcd1a2065d}, !- Outside Boundary Condition Object
  NoSun,                                  !- Sun Exposure
  NoWind,                                 !- Wind Exposure
  ,                                       !- View Factor to Ground
  ,                                       !- Number of Vertices
  0, -2.8421709430404e-14, 4,             !- X,Y,Z Vertex 1 {m}
  0, -2.8421709430404e-14, 0,             !- X,Y,Z Vertex 2 {m}
  17.8537208837531, -2.8421709430404e-14, 0, !- X,Y,Z Vertex 3 {m}
  17.8537208837531, -2.8421709430404e-14, 4; !- X,Y,Z Vertex 4 {m}

OS:Surface,
  {4f37eef2-a556-49e9-b34f-7ef55483c850}, !- Handle
  Surface 11,                             !- Name
  Wall,                                   !- Surface Type
  ,                                       !- Construction Name
  {6834be61-8243-45da-9273-bd63c9d12ed1}, !- Space Name
  Surface,                                !- Outside Boundary Condition
  {8c7b09c9-9042-4ff5-a77b-e55a04f464f7}, !- Outside Boundary Condition Object
  NoSun,                                  !- Sun Exposure
  NoWind,                                 !- Wind Exposure
  ,                                       !- View Factor to Ground
  ,                                       !- Number of Vertices
  -3, 2.99999999999997, 4,                !- X,Y,Z Vertex 1 {m}
  -3, 2.99999999999997, 0,                !- X,Y,Z Vertex 2 {m}
  0, -2.8421709430404e-14, 0,             !- X,Y,Z Vertex 3 {m}
  0, -2.8421709430404e-14, 4;             !- X,Y,Z Vertex 4 {m}

OS:Surface,
  {1792b8d4-0fe0-49ce-8ee1-7776d69dc8be}, !- Handle
  Surface 12,                             !- Name
  RoofCeiling,                            !- Surface Type
  ,                                       !- Construction Name
  {6834be61-8243-45da-9273-bd63c9d12ed1}, !- Space Name
  Outdoors,                               !- Outside Boundary Condition
  ,                                       !- Outside Boundary Condition Object
  SunExposed,                             !- Sun Exposure
  WindExposed,                            !- Wind Exposure
  ,                                       !- View Factor to Ground
  ,                                       !- Number of Vertices
  0, -2.8421709430404e-14, 4,             !- X,Y,Z Vertex 1 {m}
  17.8537208837531, -2.8421709430404e-14, 4, !- X,Y,Z Vertex 2 {m}
  20.8537208837531, 2.99999999999997, 4,  !- X,Y,Z Vertex 3 {m}
  -3, 2.99999999999997, 4;                !- X,Y,Z Vertex 4 {m}

OS:Space,
  {e10ecc37-24a2-48e9-8eae-39ac43c9d382}, !- Handle
  Story 1 East Perimeter Space,           !- Name
  ,                                       !- Space Type Name
  ,                                       !- Default Construction Set Name
  ,                                       !- Default Schedule Set Name
  -0,                                     !- Direction of Relative North {deg}
  20.8537208837531,                       !- X Origin {m}
  3,                                      !- Y Origin {m}
  0,                                      !- Z Origin {m}
  {ec5b3496-446a-4da9-aadc-b2899bc1b6e9}, !- Building Story Name
  {4fa0896e-bb8b-4ddb-ab71-469cbb684307}; !- Thermal Zone Name

OS:Surface,
  {d35b1fc5-82ac-445e-9f50-b484df463139}, !- Handle
  Surface 13,                             !- Name
  Floor,                                  !- Surface Type
  ,                                       !- Construction Name
  {e10ecc37-24a2-48e9-8eae-39ac43c9d382}, !- Space Name
  Ground,                                 !- Outside Boundary Condition
  ,                                       !- Outside Boundary Condition Object
  NoSun,                                  !- Sun Exposure
  NoWind,                                 !- Wind Exposure
  ,                                       !- View Factor to Ground
  ,                                       !- Number of Vertices
  2.99999999999997, 20.8537208837531, 0,  !- X,Y,Z Vertex 1 {m}
  2.99999999999997, -3, 0,                !- X,Y,Z Vertex 2 {m}
  -2.8421709430404e-14, 0, 0,             !- X,Y,Z Vertex 3 {m}
  -2.8421709430404e-14, 17.8537208837531, 0; !- X,Y,Z Vertex 4 {m}

OS:Surface,
  {412f92f9-35fb-4573-bc9d-fb1f7f8fdd5d}, !- Handle
  Surface 14,                             !- Name
  Wall,                                   !- Surface Type
  ,                                       !- Construction Name
  {e10ecc37-24a2-48e9-8eae-39ac43c9d382}, !- Space Name
  Outdoors,                               !- Outside Boundary Condition
  ,                                       !- Outside Boundary Condition Object
  SunExposed,                             !- Sun Exposure
  WindExposed,                            !- Wind Exposure
  ,                                       !- View Factor to Ground
  ,                                       !- Number of Vertices
  2.99999999999997, -3, 4,                !- X,Y,Z Vertex 1 {m}
  2.99999999999997, -3, 0,                !- X,Y,Z Vertex 2 {m}
  2.99999999999997, 20.8537208837531, 0,  !- X,Y,Z Vertex 3 {m}
  2.99999999999997, 20.8537208837531, 4;  !- X,Y,Z Vertex 4 {m}

OS:Surface,
  {1de4123c-3680-4038-be1c-894b71569592}, !- Handle
  Surface 15,                             !- Name
  Wall,                                   !- Surface Type
  ,                                       !- Construction Name
  {e10ecc37-24a2-48e9-8eae-39ac43c9d382}, !- Space Name
  Surface,                                !- Outside Boundary Condition
  {915da6be-c6e0-4f6d-b948-819cce1fbd45}, !- Outside Boundary Condition Object
  NoSun,                                  !- Sun Exposure
  NoWind,                                 !- Wind Exposure
  ,                                       !- View Factor to Ground
  ,                                       !- Number of Vertices
  -2.8421709430404e-14, 0, 4,             !- X,Y,Z Vertex 1 {m}
  -2.8421709430404e-14, 0, 0,             !- X,Y,Z Vertex 2 {m}
  2.99999999999997, -3, 0,                !- X,Y,Z Vertex 3 {m}
  2.99999999999997, -3, 4;                !- X,Y,Z Vertex 4 {m}

OS:Surface,
  {786f0c9d-8576-4000-9a20-9d8343767e21}, !- Handle
  Surface 16,                             !- Name
  Wall,                                   !- Surface Type
  ,                                       !- Construction Name
  {e10ecc37-24a2-48e9-8eae-39ac43c9d382}, !- Space Name
  Surface,                                !- Outside Boundary Condition
  {25901e5c-e33c-487a-8f91-a3c83fed2bea}, !- Outside Boundary Condition Object
  NoSun,                                  !- Sun Exposure
  NoWind,                                 !- Wind Exposure
  ,                                       !- View Factor to Ground
  ,                                       !- Number of Vertices
  -2.8421709430404e-14, 17.8537208837531, 4, !- X,Y,Z Vertex 1 {m}
  -2.8421709430404e-14, 17.8537208837531, 0, !- X,Y,Z Vertex 2 {m}
  -2.8421709430404e-14, 0, 0,             !- X,Y,Z Vertex 3 {m}
  -2.8421709430404e-14, 0, 4;             !- X,Y,Z Vertex 4 {m}

OS:Surface,
  {a27029c5-cc71-490b-ab08-f068f8554f38}, !- Handle
  Surface 17,                             !- Name
  Wall,                                   !- Surface Type
  ,                                       !- Construction Name
  {e10ecc37-24a2-48e9-8eae-39ac43c9d382}, !- Space Name
  Surface,                                !- Outside Boundary Condition
  {4f54f792-38f2-43d9-a28a-16cf64a50976}, !- Outside Boundary Condition Object
  NoSun,                                  !- Sun Exposure
  NoWind,                                 !- Wind Exposure
  ,                                       !- View Factor to Ground
  ,                                       !- Number of Vertices
  2.99999999999997, 20.8537208837531, 4,  !- X,Y,Z Vertex 1 {m}
  2.99999999999997, 20.8537208837531, 0,  !- X,Y,Z Vertex 2 {m}
  -2.8421709430404e-14, 17.8537208837531, 0, !- X,Y,Z Vertex 3 {m}
  -2.8421709430404e-14, 17.8537208837531, 4; !- X,Y,Z Vertex 4 {m}

OS:Surface,
  {6b94f625-600a-42ed-b1c3-6ec0b85f93e0}, !- Handle
  Surface 18,                             !- Name
  RoofCeiling,                            !- Surface Type
  ,                                       !- Construction Name
  {e10ecc37-24a2-48e9-8eae-39ac43c9d382}, !- Space Name
  Outdoors,                               !- Outside Boundary Condition
  ,                                       !- Outside Boundary Condition Object
  SunExposed,                             !- Sun Exposure
  WindExposed,                            !- Wind Exposure
  ,                                       !- View Factor to Ground
  ,                                       !- Number of Vertices
  -2.8421709430404e-14, 17.8537208837531, 4, !- X,Y,Z Vertex 1 {m}
  -2.8421709430404e-14, 0, 4,             !- X,Y,Z Vertex 2 {m}
  2.99999999999997, -3, 4,                !- X,Y,Z Vertex 3 {m}
  2.99999999999997, 20.8537208837531, 4;  !- X,Y,Z Vertex 4 {m}

OS:Space,
  {b16d4766-d1d6-4506-b88e-c46ef413991a}, !- Handle
  Story 1 South Perimeter Space,          !- Name
  ,                                       !- Space Type Name
  ,                                       !- Default Construction Set Name
  ,                                       !- Default Schedule Set Name
  -0,                                     !- Direction of Relative North {deg}
  0,                                      !- X Origin {m}
  0,                                      !- Y Origin {m}
  0,                                      !- Z Origin {m}
  {ec5b3496-446a-4da9-aadc-b2899bc1b6e9}, !- Building Story Name
  {8ffeaf07-08aa-457e-a2fb-d566fbe5adcb}; !- Thermal Zone Name

OS:Surface,
  {77fa2923-20cf-47a4-b90b-b06d09ed3ffc}, !- Handle
  Surface 19,                             !- Name
  Floor,                                  !- Surface Type
  ,                                       !- Construction Name
  {b16d4766-d1d6-4506-b88e-c46ef413991a}, !- Space Name
  Ground,                                 !- Outside Boundary Condition
  ,                                       !- Outside Boundary Condition Object
  NoSun,                                  !- Sun Exposure
  NoWind,                                 !- Wind Exposure
  ,                                       !- View Factor to Ground
  ,                                       !- Number of Vertices
  23.8537208837531, 0, 0,                 !- X,Y,Z Vertex 1 {m}
  0, 0, 0,                                !- X,Y,Z Vertex 2 {m}
  3, 3, 0,                                !- X,Y,Z Vertex 3 {m}
  20.8537208837531, 3, 0;                 !- X,Y,Z Vertex 4 {m}

OS:Surface,
  {cb0e447a-68d6-411d-bf97-6097111e11d0}, !- Handle
  Surface 20,                             !- Name
  Wall,                                   !- Surface Type
  ,                                       !- Construction Name
  {b16d4766-d1d6-4506-b88e-c46ef413991a}, !- Space Name
  Outdoors,                               !- Outside Boundary Condition
  ,                                       !- Outside Boundary Condition Object
  SunExposed,                             !- Sun Exposure
  WindExposed,                            !- Wind Exposure
  ,                                       !- View Factor to Ground
  ,                                       !- Number of Vertices
  0, 0, 4,                                !- X,Y,Z Vertex 1 {m}
  0, 0, 0,                                !- X,Y,Z Vertex 2 {m}
  23.8537208837531, 0, 0,                 !- X,Y,Z Vertex 3 {m}
  23.8537208837531, 0, 4;                 !- X,Y,Z Vertex 4 {m}

OS:Surface,
  {f5de3b8e-408e-4038-a4d2-cb89cffc8f3a}, !- Handle
  Surface 21,                             !- Name
  Wall,                                   !- Surface Type
  ,                                       !- Construction Name
  {b16d4766-d1d6-4506-b88e-c46ef413991a}, !- Space Name
  Surface,                                !- Outside Boundary Condition
  {6cd8b90f-3467-4637-9fbe-cc7073c10d47}, !- Outside Boundary Condition Object
  NoSun,                                  !- Sun Exposure
  NoWind,                                 !- Wind Exposure
  ,                                       !- View Factor to Ground
  ,                                       !- Number of Vertices
  3, 3, 4,                                !- X,Y,Z Vertex 1 {m}
  3, 3, 0,                                !- X,Y,Z Vertex 2 {m}
  0, 0, 0,                                !- X,Y,Z Vertex 3 {m}
  0, 0, 4;                                !- X,Y,Z Vertex 4 {m}

OS:Surface,
  {330d719e-33ae-45d5-938c-1d416b048941}, !- Handle
  Surface 22,                             !- Name
  Wall,                                   !- Surface Type
  ,                                       !- Construction Name
  {b16d4766-d1d6-4506-b88e-c46ef413991a}, !- Space Name
  Surface,                                !- Outside Boundary Condition
  {169f82a0-e230-4180-9196-ee56065ca074}, !- Outside Boundary Condition Object
  NoSun,                                  !- Sun Exposure
  NoWind,                                 !- Wind Exposure
  ,                                       !- View Factor to Ground
  ,                                       !- Number of Vertices
  20.8537208837531, 3, 4,                 !- X,Y,Z Vertex 1 {m}
  20.8537208837531, 3, 0,                 !- X,Y,Z Vertex 2 {m}
  3, 3, 0,                                !- X,Y,Z Vertex 3 {m}
  3, 3, 4;                                !- X,Y,Z Vertex 4 {m}

OS:Surface,
  {915da6be-c6e0-4f6d-b948-819cce1fbd45}, !- Handle
  Surface 23,                             !- Name
  Wall,                                   !- Surface Type
  ,                                       !- Construction Name
  {b16d4766-d1d6-4506-b88e-c46ef413991a}, !- Space Name
  Surface,                                !- Outside Boundary Condition
  {1de4123c-3680-4038-be1c-894b71569592}, !- Outside Boundary Condition Object
  NoSun,                                  !- Sun Exposure
  NoWind,                                 !- Wind Exposure
  ,                                       !- View Factor to Ground
  ,                                       !- Number of Vertices
  23.8537208837531, 0, 4,                 !- X,Y,Z Vertex 1 {m}
  23.8537208837531, 0, 0,                 !- X,Y,Z Vertex 2 {m}
  20.8537208837531, 3, 0,                 !- X,Y,Z Vertex 3 {m}
  20.8537208837531, 3, 4;                 !- X,Y,Z Vertex 4 {m}

OS:Surface,
  {b74074a9-5484-4844-8a74-83ef0f21da4d}, !- Handle
  Surface 24,                             !- Name
  RoofCeiling,                            !- Surface Type
  ,                                       !- Construction Name
  {b16d4766-d1d6-4506-b88e-c46ef413991a}, !- Space Name
  Outdoors,                               !- Outside Boundary Condition
  ,                                       !- Outside Boundary Condition Object
  SunExposed,                             !- Sun Exposure
  WindExposed,                            !- Wind Exposure
  ,                                       !- View Factor to Ground
  ,                                       !- Number of Vertices
  20.8537208837531, 3, 4,                 !- X,Y,Z Vertex 1 {m}
  3, 3, 4,                                !- X,Y,Z Vertex 2 {m}
  0, 0, 4,                                !- X,Y,Z Vertex 3 {m}
  23.8537208837531, 0, 4;                 !- X,Y,Z Vertex 4 {m}

OS:Space,
  {f6399fd1-8165-4705-bc81-38a24818128f}, !- Handle
  Story 1 Core Space,                     !- Name
  ,                                       !- Space Type Name
  ,                                       !- Default Construction Set Name
  ,                                       !- Default Schedule Set Name
  -0,                                     !- Direction of Relative North {deg}
  3,                                      !- X Origin {m}
  3,                                      !- Y Origin {m}
  0,                                      !- Z Origin {m}
  {ec5b3496-446a-4da9-aadc-b2899bc1b6e9}, !- Building Story Name
  {0b368cc1-bb18-4d28-aaa4-e1b384ea0649}; !- Thermal Zone Name

OS:Surface,
  {ee50b31f-83ef-4db0-9c2d-45969d4c7d57}, !- Handle
  Surface 25,                             !- Name
  Floor,                                  !- Surface Type
  ,                                       !- Construction Name
  {f6399fd1-8165-4705-bc81-38a24818128f}, !- Space Name
  Ground,                                 !- Outside Boundary Condition
  ,                                       !- Outside Boundary Condition Object
  NoSun,                                  !- Sun Exposure
  NoWind,                                 !- Wind Exposure
  ,                                       !- View Factor to Ground
  ,                                       !- Number of Vertices
  0, 0, 0,                                !- X,Y,Z Vertex 1 {m}
  0, 17.8537208837531, 0,                 !- X,Y,Z Vertex 2 {m}
  17.8537208837531, 17.8537208837531, 0,  !- X,Y,Z Vertex 3 {m}
  17.8537208837531, 0, 0;                 !- X,Y,Z Vertex 4 {m}

OS:Surface,
  {ee57a248-902f-46b8-9412-eb75b2d39120}, !- Handle
  Surface 26,                             !- Name
  Wall,                                   !- Surface Type
  ,                                       !- Construction Name
  {f6399fd1-8165-4705-bc81-38a24818128f}, !- Space Name
  Surface,                                !- Outside Boundary Condition
  {50799df5-3cbc-4bf3-b1d4-361c5503c14c}, !- Outside Boundary Condition Object
  NoSun,                                  !- Sun Exposure
  NoWind,                                 !- Wind Exposure
  ,                                       !- View Factor to Ground
  ,                                       !- Number of Vertices
  0, 17.8537208837531, 4,                 !- X,Y,Z Vertex 1 {m}
  0, 17.8537208837531, 0,                 !- X,Y,Z Vertex 2 {m}
  0, 0, 0,                                !- X,Y,Z Vertex 3 {m}
  0, 0, 4;                                !- X,Y,Z Vertex 4 {m}

OS:Surface,
  {33474d30-c637-4980-ab4d-33dcd1a2065d}, !- Handle
  Surface 27,                             !- Name
  Wall,                                   !- Surface Type
  ,                                       !- Construction Name
  {f6399fd1-8165-4705-bc81-38a24818128f}, !- Space Name
  Surface,                                !- Outside Boundary Condition
  {cd477128-41c4-448d-b2c6-c36dfe4a514a}, !- Outside Boundary Condition Object
  NoSun,                                  !- Sun Exposure
  NoWind,                                 !- Wind Exposure
  ,                                       !- View Factor to Ground
  ,                                       !- Number of Vertices
  17.8537208837531, 17.8537208837531, 4,  !- X,Y,Z Vertex 1 {m}
  17.8537208837531, 17.8537208837531, 0,  !- X,Y,Z Vertex 2 {m}
  0, 17.8537208837531, 0,                 !- X,Y,Z Vertex 3 {m}
  0, 17.8537208837531, 4;                 !- X,Y,Z Vertex 4 {m}

OS:Surface,
  {25901e5c-e33c-487a-8f91-a3c83fed2bea}, !- Handle
  Surface 28,                             !- Name
  Wall,                                   !- Surface Type
  ,                                       !- Construction Name