
OS:Version,
  {ff6f0776-2ac4-429d-b1ba-8b8a7945449f}, !- Handle
  0.10.0;                                 !- Version Identifier

OS:BuildingStory,
  {f17d4399-b312-4b56-aa4d-2612d5439849}, !- Handle
  Story 1,                                !- Name
  0,                                      !- Nominal Z Coordinate {m}
  4,                                      !- Nominal Floor to Floor Height {m}
  ,                                       !- Default Construction Set Name
  ,                                       !- Default Schedule Set Name
  ;                                       !- Group Rendering Name

OS:Space,
  {9cf96b6f-34e7-49cc-af16-10a791525c7c}, !- Handle
  Story 1 West Perimeter Space,           !- Name
  ,                                       !- Space Type Name
  ,                                       !- Default Construction Set Name
  ,                                       !- Default Schedule Set Name
  -0,                                     !- Direction of Relative North {deg}
  0,                                      !- X Origin {m}
  0,                                      !- Y Origin {m}
  0,                                      !- Z Origin {m}
  {f17d4399-b312-4b56-aa4d-2612d5439849}, !- Building Story Name
  {44b6f857-2f3b-481b-b6ab-b9e8a5e1f6d5}; !- Thermal Zone Name

OS:Surface,
  {a386ba1a-2624-434d-ab0c-0685ec62d81b}, !- Handle
  Surface 1,                              !- Name
  Floor,                                  !- Surface Type
  ,                                       !- Construction Name
  {9cf96b6f-34e7-49cc-af16-10a791525c7c}, !- Space Name
  Ground,                                 !- Outside Boundary Condition
  ,                                       !- Outside Boundary Condition Object
  NoSun,                                  !- Sun Exposure
  NoWind,                                 !- Wind Exposure
  ,                                       !- View Factor to Ground
  ,                                       !- Number of Vertices
  0, 0, 0,                                !- X,Y,Z Vertex 1 {m}
  0, 21.3541565040626, 0,                 !- X,Y,Z Vertex 2 {m}
  3, 18.3541565040626, 0,                 !- X,Y,Z Vertex 3 {m}
  3, 3, 0;                                !- X,Y,Z Vertex 4 {m}

OS:Surface,
  {200f8d6b-db87-4a39-a4ca-d987b8e66cc4}, !- Handle
  Surface 2,                              !- Name
  Wall,                                   !- Surface Type
  ,                                       !- Construction Name
  {9cf96b6f-34e7-49cc-af16-10a791525c7c}, !- Space Name
  Outdoors,                               !- Outside Boundary Condition
  ,                                       !- Outside Boundary Condition Object
  SunExposed,                             !- Sun Exposure
  WindExposed,                            !- Wind Exposure
  ,                                       !- View Factor to Ground
  ,                                       !- Number of Vertices
  0, 21.3541565040626, 4,                 !- X,Y,Z Vertex 1 {m}
  0, 21.3541565040626, 0,                 !- X,Y,Z Vertex 2 {m}
  0, 0, 0,                                !- X,Y,Z Vertex 3 {m}
  0, 0, 4;                                !- X,Y,Z Vertex 4 {m}

OS:Surface,
  {0e46662c-f977-4afc-992e-18fbb341048e}, !- Handle
  Surface 3,                              !- Name
  Wall,                                   !- Surface Type
  ,                                       !- Construction Name
  {9cf96b6f-34e7-49cc-af16-10a791525c7c}, !- Space Name
  Surface,                                !- Outside Boundary Condition
  {d72d544f-d48b-41c7-87c5-6867e0f0907b}, !- Outside Boundary Condition Object
  NoSun,                                  !- Sun Exposure
  NoWind,                                 !- Wind Exposure
  ,                                       !- View Factor to Ground
  ,                                       !- Number of Vertices
  3, 18.3541565040626, 4,                 !- X,Y,Z Vertex 1 {m}
  3, 18.3541565040626, 0,                 !- X,Y,Z Vertex 2 {m}
  0, 21.3541565040626, 0,                 !- X,Y,Z Vertex 3 {m}
  0, 21.3541565040626, 4;                 !- X,Y,Z Vertex 4 {m}

OS:Surface,
  {63ca7574-e978-496d-b260-c10e58898222}, !- Handle
  Surface 4,                              !- Name
  Wall,                                   !- Surface Type
  ,                                       !- Construction Name
  {9cf96b6f-34e7-49cc-af16-10a791525c7c}, !- Space Name
  Surface,                                !- Outside Boundary Condition
  {00ed7338-6bf7-4681-93cd-4dea78dd9c3b}, !- Outside Boundary Condition Object
  NoSun,                                  !- Sun Exposure
  NoWind,                                 !- Wind Exposure
  ,                                       !- View Factor to Ground
  ,                                       !- Number of Vertices
  3, 3, 4,                                !- X,Y,Z Vertex 1 {m}
  3, 3, 0,                                !- X,Y,Z Vertex 2 {m}
  3, 18.3541565040626, 0,                 !- X,Y,Z Vertex 3 {m}
  3, 18.3541565040626, 4;                 !- X,Y,Z Vertex 4 {m}

OS:Surface,
  {3d2c5472-a205-4358-a7fb-5e3d8266ef8d}, !- Handle
  Surface 5,                              !- Name
  Wall,                                   !- Surface Type
  ,                                       !- Construction Name
  {9cf96b6f-34e7-49cc-af16-10a791525c7c}, !- Space Name
  Surface,                                !- Outside Boundary Condition
  {24279056-36d5-42ea-aca2-48e701302ce1}, !- Outside Boundary Condition Object
  NoSun,                                  !- Sun Exposure
  NoWind,                                 !- Wind Exposure
  ,                                       !- View Factor to Ground
  ,                                       !- Number of Vertices
  0, 0, 4,                                !- X,Y,Z Vertex 1 {m}
  0, 0, 0,                                !- X,Y,Z Vertex 2 {m}
  3, 3, 0,                                !- X,Y,Z Vertex 3 {m}
  3, 3, 4;                                !- X,Y,Z Vertex 4 {m}

OS:Surface,
  {1c944506-b146-4772-843c-639b9fae680c}, !- Handle
  Surface 6,                              !- Name
  RoofCeiling,                            !- Surface Type
  ,                                       !- Construction Name
  {9cf96b6f-34e7-49cc-af16-10a791525c7c}, !- Space Name
  Outdoors,                               !- Outside Boundary Condition
  ,                                       !- Outside Boundary Condition Object
  SunExposed,                             !- Sun Exposure
  WindExposed,                            !- Wind Exposure
  ,                                       !- View Factor to Ground
  ,                                       !- Number of Vertices
  3, 3, 4,                                !- X,Y,Z Vertex 1 {m}
  3, 18.3541565040626, 4,                 !- X,Y,Z Vertex 2 {m}
  0, 21.3541565040626, 4,                 !- X,Y,Z Vertex 3 {m}
  0, 0, 4;                                !- X,Y,Z Vertex 4 {m}

OS:Space,
  {86a571bb-d396-404f-bd90-d34e168d94f8}, !- Handle
  Story 1 North Perimeter Space,          !- Name
  ,                                       !- Space Type Name
  ,                                       !- Default Construction Set Name
  ,                                       !- Default Schedule Set Name
  -0,                                     !- Direction of Relative North {deg}
  3,                                      !- X Origin {m}
  18.3541565040626,                       !- Y Origin {m}
  0,                                      !- Z Origin {m}
  {f17d4399-b312-4b56-aa4d-2612d5439849}, !- Building Story Name
  {37d05f2a-8f04-4253-94b4-e48893bda4d7}; !- Thermal Zone Name

OS:Surface,
  {fe42e399-2103-455e-b287-73c732e97909}, !- Handle
  Surface 7,                              !- Name
  Floor,                                  !- Surface Type
  ,                                       !- Construction Name
  {86a571bb-d396-404f-bd90-d34e168d94f8}, !- Space Name
  Ground,                                 !- Outside Boundary Condition
  ,                                       !- Outside Boundary Condition Object
  NoSun,                                  !- Sun Exposure
  NoWind,                                 !- Wind Exposure
  ,                                       !- View Factor to Ground
  ,                                       !- Number of Vertices
  -3, 2.99999999999998, 0,                !- X,Y,Z Vertex 1 {m}
  18.3541565040626, 2.99999999999998, 0,  !- X,Y,Z Vertex 2 {m}
  15.3541565040626, -2.1316282072803e-14, 0, !- X,Y,Z Vertex 3 {m}
  0, -2.1316282072803e-14, 0;             !- X,Y,Z Vertex 4 {m}

OS:Surface,
  {2fd0ee5e-37d7-47e5-b471-ffe48b60335c}, !- Handle
  Surface 8,                              !- Name
  Wall,                                   !- Surface Type
  ,                                       !- Construction Name
  {86a571bb-d396-404f-bd90-d34e168d94f8}, !- Space Name
  Outdoors,                               !- Outside Boundary Condition
  ,                                       !- Outside Boundary Condition Object
  SunExposed,                             !- Sun Exposure
  WindExposed,                            !- Wind Exposure
  ,                                       !- View Factor to Ground
  ,                                       !- Number of Vertices
  18.3541565040626, 2.99999999999998, 4,  !- X,Y,Z Vertex 1 {m}
  18.3541565040626, 2.99999999999998, 0,  !- X,Y,Z Vertex 2 {m}
  -3, 2.99999999999998, 0,                !- X,Y,Z Vertex 3 {m}
  -3, 2.99999999999998, 4;                !- X,Y,Z Vertex 4 {m}

OS:Surface,
  {e3fe9ab9-367e-46c6-aed4-7a58ce86dedc}, !- Handle
  Surface 9,                              !- Name
  Wall,                                   !- Surface Type
  ,                                       !- Construction Name
  {86a571bb-d396-404f-bd90-d34e168d94f8}, !- Space Name
  Surface,                                !- Outside Boundary Condition
  {bb18e4d9-e9e1-48b6-aa48-183e24b1f637}, !- Outside Boundary Condition Object
  NoSun,                                  !- Sun Exposure
  NoWind,                                 !- Wind Exposure
  ,                                       !- View Factor to Ground
  ,                                       !- Number of Vertices
  15.3541565040626, -2.1316282072803e-14, 4, !- X,Y,Z Vertex 1 {m}
  15.3541565040626, -2.1316282072803e-14, 0, !- X,Y,Z Vertex 2 {m}
  18.3541565040626, 2.99999999999998, 0,  !- X,Y,Z Vertex 3 {m}
  18.3541565040626, 2.99999999999998, 4;  !- X,Y,Z Vertex 4 {m}

OS:Surface,
  {e7dfe2a8-ab55-4258-afa2-dff62222b7d4}, !- Handle
  Surface 10,                             !- Name
  Wall,                                   !- Surface Type
  ,                                       !- Construction Name
  {86a571bb-d396-404f-bd90-d34e168d94f8}, !- Space Name
  Surface,                                !- Outside Boundary Condition
  {6e1c461d-e980-4a71-bc7f-d67c53b02251}, !- Outside Boundary Condition Object
  NoSun,                                  !- Sun Exposure
  NoWind,                                 !- Wind Exposure
  ,                                       !- View Factor to Ground
  ,                                       !- Number of Vertices
  0, -2.1316282072803e-14, 4,             !- X,Y,Z Vertex 1 {m}
  0, -2.1316282072803e-14, 0,             !- X,Y,Z Vertex 2 {m}
  15.3541565040626, -2.1316282072803e-14, 0, !- X,Y,Z Vertex 3 {m}
  15.3541565040626, -2.1316282072803e-14, 4; !- X,Y,Z Vertex 4 {m}

OS:Surface,
  {d72d544f-d48b-41c7-87c5-6867e0f0907b}, !- Handle
  Surface 11,                             !- Name
  Wall,                                   !- Surface Type
  ,                                       !- Construction Name
  {86a571bb-d396-404f-bd90-d34e168d94f8}, !- Space Name
  Surface,                                !- Outside Boundary Condition
  {0e46662c-f977-4afc-992e-18fbb341048e}, !- Outside Boundary Condition Object
  NoSun,                                  !- Sun Exposure
  NoWind,                                 !- Wind Exposure
  ,                                       !- View Factor to Ground
  ,                                       !- Number of Vertices
  -3, 2.99999999999998, 4,                !- X,Y,Z Vertex 1 {m}
  -3, 2.99999999999998, 0,                !- X,Y,Z Vertex 2 {m}
  0, -2.1316282072803e-14, 0,             !- X,Y,Z Vertex 3 {m}
  0, -2.1316282072803e-14, 4;             !- X,Y,Z Vertex 4 {m}

OS:Surface,
  {5b4bffaf-f819-4a29-8433-6b9179c96409}, !- Handle
  Surface 12,                             !- Name
  RoofCeiling,                            !- Surface Type
  ,                                       !- Construction Name
  {86a571bb-d396-404f-bd90-d34e168d94f8}, !- Space Name
  Outdoors,                               !- Outside Boundary Condition
  ,                                       !- Outside Boundary Condition Object
  SunExposed,                             !- Sun Exposure
  WindExposed,                            !- Wind Exposure
  ,                                       !- View Factor to Ground
  ,                                       !- Number of Vertices
  0, -2.1316282072803e-14, 4,             !- X,Y,Z Vertex 1 {m}
  15.3541565040626, -2.1316282072803e-14, 4, !- X,Y,Z Vertex 2 {m}
  18.3541565040626, 2.99999999999998, 4,  !- X,Y,Z Vertex 3 {m}
  -3, 2.99999999999998, 4;                !- X,Y,Z Vertex 4 {m}

OS:Space,
  {44e77a81-90b7-4795-be79-1cd88a642a31}, !- Handle
  Story 1 East Perimeter Space,           !- Name
  ,                                       !- Space Type Name
  ,                                       !- Default Construction Set Name
  ,                                       !- Default Schedule Set Name
  -0,                                     !- Direction of Relative North {deg}
  18.3541565040626,                       !- X Origin {m}
  3,                                      !- Y Origin {m}
  0,                                      !- Z Origin {m}
  {f17d4399-b312-4b56-aa4d-2612d5439849}, !- Building Story Name
  {9c49a68a-c160-40f7-b172-56fe11d16ab9}; !- Thermal Zone Name

OS:Surface,
  {855157fa-3015-40ab-9a27-0f530149397f}, !- Handle
  Surface 13,                             !- Name
  Floor,                                  !- Surface Type
  ,                                       !- Construction Name
  {44e77a81-90b7-4795-be79-1cd88a642a31}, !- Space Name
  Ground,                                 !- Outside Boundary Condition
  ,                                       !- Outside Boundary Condition Object
  NoSun,                                  !- Sun Exposure
  NoWind,                                 !- Wind Exposure
  ,                                       !- View Factor to Ground
  ,                                       !- Number of Vertices
  2.99999999999998, 18.3541565040626, 0,  !- X,Y,Z Vertex 1 {m}
  2.99999999999998, -3, 0,                !- X,Y,Z Vertex 2 {m}
  -2.1316282072803e-14, 0, 0,             !- X,Y,Z Vertex 3 {m}
  -2.1316282072803e-14, 15.3541565040626, 0; !- X,Y,Z Vertex 4 {m}

OS:Surface,
  {16e1edb1-ce35-4920-9e5e-6e65b72ff41f}, !- Handle
  Surface 14,                             !- Name
  Wall,                                   !- Surface Type
  ,                                       !- Construction Name
  {44e77a81-90b7-4795-be79-1cd88a642a31}, !- Space Name
  Outdoors,                               !- Outside Boundary Condition
  ,                                       !- Outside Boundary Condition Object
  SunExposed,                             !- Sun Exposure
  WindExposed,                            !- Wind Exposure
  ,                                       !- View Factor to Ground
  ,                                       !- Number of Vertices
  2.99999999999998, -3, 4,                !- X,Y,Z Vertex 1 {m}
  2.99999999999998, -3, 0,                !- X,Y,Z Vertex 2 {m}
  2.99999999999998, 18.3541565040626, 0,  !- X,Y,Z Vertex 3 {m}
  2.99999999999998, 18.3541565040626, 4;  !- X,Y,Z Vertex 4 {m}

OS:Surface,
  {9e2d66a1-b51b-4fcd-87a8-3cb6a316b316}, !- Handle
  Surface 15,                             !- Name
  Wall,                                   !- Surface Type
  ,                                       !- Construction Name
  {44e77a81-90b7-4795-be79-1cd88a642a31}, !- Space Name
  Surface,                                !- Outside Boundary Condition
  {373de7de-b213-40f9-873c-68ff6306e499}, !- Outside Boundary Condition Object
  NoSun,                                  !- Sun Exposure
  NoWind,                                 !- Wind Exposure
  ,                                       !- View Factor to Ground
  ,                                       !- Number of Vertices
  -2.1316282072803e-14, 0, 4,             !- X,Y,Z Vertex 1 {m}
  -2.1316282072803e-14, 0, 0,             !- X,Y,Z Vertex 2 {m}
  2.99999999999998, -3, 0,                !- X,Y,Z Vertex 3 {m}
  2.99999999999998, -3, 4;                !- X,Y,Z Vertex 4 {m}

OS:Surface,
  {705e228f-6ce3-44fb-8e6b-fa0b5e939684}, !- Handle
  Surface 16,                             !- Name
  Wall,                                   !- Surface Type
  ,                                       !- Construction Name
  {44e77a81-90b7-4795-be79-1cd88a642a31}, !- Space Name
  Surface,                                !- Outside Boundary Condition
  {957ed05f-51a3-4d94-87e4-bb8061c0ab4e}, !- Outside Boundary Condition Object
  NoSun,                                  !- Sun Exposure
  NoWind,                                 !- Wind Exposure
  ,                                       !- View Factor to Ground
  ,                                       !- Number of Vertices
  -2.1316282072803e-14, 15.3541565040626, 4, !- X,Y,Z Vertex 1 {m}
  -2.1316282072803e-14, 15.3541565040626, 0, !- X,Y,Z Vertex 2 {m}
  -2.1316282072803e-14, 0, 0,             !- X,Y,Z Vertex 3 {m}
  -2.1316282072803e-14, 0, 4;             !- X,Y,Z Vertex 4 {m}

OS:Surface,
  {bb18e4d9-e9e1-48b6-aa48-183e24b1f637}, !- Handle
  Surface 17,                             !- Name
  Wall,                                   !- Surface Type
  ,                                       !- Construction Name
  {44e77a81-90b7-4795-be79-1cd88a642a31}, !- Space Name
  Surface,                                !- Outside Boundary Condition
  {e3fe9ab9-367e-46c6-aed4-7a58ce86dedc}, !- Outside Boundary Condition Object
  NoSun,                                  !- Sun Exposure
  NoWind,                                 !- Wind Exposure
  ,                                       !- View Factor to Ground
  ,                                       !- Number of Vertices
  2.99999999999998, 18.3541565040626, 4,  !- X,Y,Z Vertex 1 {m}
  2.99999999999998, 18.3541565040626, 0,  !- X,Y,Z Vertex 2 {m}
  -2.1316282072803e-14, 15.3541565040626, 0, !- X,Y,Z Vertex 3 {m}
  -2.1316282072803e-14, 15.3541565040626, 4; !- X,Y,Z Vertex 4 {m}

OS:Surface,
  {8574d5bd-18fe-45c5-ad5e-863a4e8f9ee9}, !- Handle
  Surface 18,                             !- Name
  RoofCeiling,                            !- Surface Type
  ,                                       !- Construction Name
  {44e77a81-90b7-4795-be79-1cd88a642a31}, !- Space Name
  Outdoors,                               !- Outside Boundary Condition
  ,                                       !- Outside Boundary Condition Object
  SunExposed,                             !- Sun Exposure
  WindExposed,                            !- Wind Exposure
  ,                                       !- View Factor to Ground
  ,                                       !- Number of Vertices
  -2.1316282072803e-14, 15.3541565040626, 4, !- X,Y,Z Vertex 1 {m}
  -2.1316282072803e-14, 0, 4,             !- X,Y,Z Vertex 2 {m}
  2.99999999999998, -3, 4,                !- X,Y,Z Vertex 3 {m}
  2.99999999999998, 18.3541565040626, 4;  !- X,Y,Z Vertex 4 {m}

OS:Space,
  {02b450f2-7611-4aca-8ae1-1af5ce2f4121}, !- Handle
  Story 1 South Perimeter Space,          !- Name
  ,                                       !- Space Type Name
  ,                                       !- Default Construction Set Name
  ,                                       !- Default Schedule Set Name
  -0,                                     !- Direction of Relative North {deg}
  0,                                      !- X Origin {m}
  0,                                      !- Y Origin {m}
  0,                                      !- Z Origin {m}
  {f17d4399-b312-4b56-aa4d-2612d5439849}, !- Building Story Name
  {e859678b-7802-4919-902b-efd63f685308}; !- Thermal Zone Name

OS:Surface,
  {760f893b-9613-40ce-b082-cf7611e3f73d}, !- Handle
  Surface 19,                             !- Name
  Floor,                                  !- Surface Type
  ,                                       !- Construction Name
  {02b450f2-7611-4aca-8ae1-1af5ce2f4121}, !- Space Name
  Ground,                                 !- Outside Boundary Condition
  ,                                       !- Outside Boundary Condition Object
  NoSun,                                  !- Sun Exposure
  NoWind,                                 !- Wind Exposure
  ,                                       !- View Factor to Ground
  ,                                       !- Number of Vertices
  21.3541565040626, 0, 0,                 !- X,Y,Z Vertex 1 {m}
  0, 0, 0,                                !- X,Y,Z Vertex 2 {m}
  3, 3, 0,                                !- X,Y,Z Vertex 3 {m}
  18.3541565040626, 3, 0;                 !- X,Y,Z Vertex 4 {m}

OS:Surface,
  {df25cb6e-4a43-470d-9540-34a254961cd9}, !- Handle
  Surface 20,                             !- Name
  Wall,                                   !- Surface Type
  ,                                       !- Construction Name
  {02b450f2-7611-4aca-8ae1-1af5ce2f4121}, !- Space Name
  Outdoors,                               !- Outside Boundary Condition
  ,                                       !- Outside Boundary Condition Object
  SunExposed,                             !- Sun Exposure
  WindExposed,                            !- Wind Exposure
  ,                                       !- View Factor to Ground
  ,                                       !- Number of Vertices
  0, 0, 4,                                !- X,Y,Z Vertex 1 {m}
  0, 0, 0,                                !- X,Y,Z Vertex 2 {m}
  21.3541565040626, 0, 0,                 !- X,Y,Z Vertex 3 {m}
  21.3541565040626, 0, 4;                 !- X,Y,Z Vertex 4 {m}

OS:Surface,
  {24279056-36d5-42ea-aca2-48e701302ce1}, !- Handle
  Surface 21,                             !- Name
  Wall,                                   !- Surface Type
  ,                                       !- Construction Name
  {02b450f2-7611-4aca-8ae1-1af5ce2f4121}, !- Space Name
  Surface,                                !- Outside Boundary Condition
  {3d2c5472-a205-4358-a7fb-5e3d8266ef8d}, !- Outside Boundary Condition Object
  NoSun,                                  !- Sun Exposure
  NoWind,                                 !- Wind Exposure
  ,                                       !- View Factor to Ground
  ,                                       !- Number of Vertices
  3, 3, 4,                                !- X,Y,Z Vertex 1 {m}
  3, 3, 0,                                !- X,Y,Z Vertex 2 {m}
  0, 0, 0,                                !- X,Y,Z Vertex 3 {m}
  0, 0, 4;                                !- X,Y,Z Vertex 4 {m}

OS:Surface,
  {e8db283b-b700-425c-84d4-2b402c6f056b}, !- Handle
  Surface 22,                             !- Name
  Wall,                                   !- Surface Type
  ,                                       !- Construction Name
  {02b450f2-7611-4aca-8ae1-1af5ce2f4121}, !- Space Name
  Surface,                                !- Outside Boundary Condition
  {7db5ae79-4b06-45a9-ad7e-ca46a02b84d3}, !- Outside Boundary Condition Object
  NoSun,                                  !- Sun Exposure
  NoWind,                                 !- Wind Exposure
  ,                                       !- View Factor to Ground
  ,                                       !- Number of Vertices
  18.3541565040626, 3, 4,                 !- X,Y,Z Vertex 1 {m}
  18.3541565040626, 3, 0,                 !- X,Y,Z Vertex 2 {m}
  3, 3, 0,                                !- X,Y,Z Vertex 3 {m}
  3, 3, 4;                                !- X,Y,Z Vertex 4 {m}

OS:Surface,
  {373de7de-b213-40f9-873c-68ff6306e499}, !- Handle
  Surface 23,                             !- Name
  Wall,                                   !- Surface Type
  ,                                       !- Construction Name
  {02b450f2-7611-4aca-8ae1-1af5ce2f4121}, !- Space Name
  Surface,                                !- Outside Boundary Condition
  {9e2d66a1-b51b-4fcd-87a8-3cb6a316b316}, !- Outside Boundary Condition Object
  NoSun,                                  !- Sun Exposure
  NoWind,                                 !- Wind Exposure
  ,                                       !- View Factor to Ground
  ,                                       !- Number of Vertices
  21.3541565040626, 0, 4,                 !- X,Y,Z Vertex 1 {m}
  21.3541565040626, 0, 0,                 !- X,Y,Z Vertex 2 {m}
  18.3541565040626, 3, 0,                 !- X,Y,Z Vertex 3 {m}
  18.3541565040626, 3, 4;                 !- X,Y,Z Vertex 4 {m}

OS:Surface,
  {136c9615-c6fa-476b-be79-82035ff827c8}, !- Handle
  Surface 24,                             !- Name
  RoofCeiling,                            !- Surface Type
  ,                                       !- Construction Name
  {02b450f2-7611-4aca-8ae1-1af5ce2f4121}, !- Space Name
  Outdoors,                               !- Outside Boundary Condition
  ,                                       !- Outside Boundary Condition Object
  SunExposed,                             !- Sun Exposure
  WindExposed,                            !- Wind Exposure
  ,                                       !- View Factor to Ground
  ,                                       !- Number of Vertices
  18.3541565040626, 3, 4,                 !- X,Y,Z Vertex 1 {m}
  3, 3, 4,                                !- X,Y,Z Vertex 2 {m}
  0, 0, 4,                                !- X,Y,Z Vertex 3 {m}
  21.3541565040626, 0, 4;                 !- X,Y,Z Vertex 4 {m}

OS:Space,
  {56436c56-76b5-4077-823a-09fee29e0397}, !- Handle
  Story 1 Core Space,                     !- Name
  ,                                       !- Space Type Name
  ,                                       !- Default Construction Set Name
  ,                                       !- Default Schedule Set Name
  -0,                                     !- Direction of Relative North {deg}
  3,                                      !- X Origin {m}
  3,                                      !- Y Origin {m}
  0,                                      !- Z Origin {m}
  {f17d4399-b312-4b56-aa4d-2612d5439849}, !- Building Story Name
  {6a71f374-f862-46d4-b939-b72ef7dbe3a7}; !- Thermal Zone Name

OS:Surface,
  {2f406a84-81a5-4f44-b517-379672d7f33b}, !- Handle
  Surface 25,                             !- Name
  Floor,                                  !- Surface Type
  ,                                       !- Construction Name
  {56436c56-76b5-4077-823a-09fee29e0397}, !- Space Name
  Ground,                                 !- Outside Boundary Condition
  ,                                       !- Outside Boundary Condition Object
  NoSun,                                  !- Sun Exposure
  NoWind,                                 !- Wind Exposure
  ,                                       !- View Factor to Ground
  ,                                       !- Number of Vertices
  0, 0, 0,                                !- X,Y,Z Vertex 1 {m}
  0, 15.3541565040626, 0,                 !- X,Y,Z Vertex 2 {m}
  15.3541565040626, 15.3541565040626, 0,  !- X,Y,Z Vertex 3 {m}
  15.3541565040626, 0, 0;                 !- X,Y,Z Vertex 4 {m}

OS:Surface,
  {00ed7338-6bf7-4681-93cd-4dea78dd9c3b}, !- Handle
  Surface 26,                             !- Name
  Wall,                                   !- Surface Type
  ,                                       !- Construction Name
  {56436c56-76b5-4077-823a-09fee29e0397}, !- Space Name
  Surface,                                !- Outside Boundary Condition
  {63ca7574-e978-496d-b260-c10e58898222}, !- Outside Boundary Condition Object
  NoSun,                                  !- Sun Exposure
  NoWind,                                 !- Wind Exposure
  ,                                       !- View Factor to Ground
  ,                                       !- Number of Vertices
  0, 15.3541565040626, 4,                 !- X,Y,Z Vertex 1 {m}
  0, 15.3541565040626, 0,                 !- X,Y,Z Vertex 2 {m}
  0, 0, 0,                                !- X,Y,Z Vertex 3 {m}
  0, 0, 4;                                !- X,Y,Z Vertex 4 {m}

OS:Surface,
  {6e1c461d-e980-4a71-bc7f-d67c53b02251}, !- Handle
  Surface 27,                             !- Name
  Wall,                                   !- Surface Type
  ,                                       !- Construction Name
  {56436c56-76b5-4077-823a-09fee29e0397}, !- Space Name
  Surface,                                !- Outside Boundary Condition
  {e7dfe2a8-ab55-4258-afa2-dff62222b7d4}, !- Outside Boundary Condition Object
  NoSun,                                  !- Sun Exposure
  NoWind,                                 !- Wind Exposure
  ,                                       !- View Factor to Ground
  ,                                       !- Number of Vertices
  15.3541565040626, 15.3541565040626, 4,  !- X,Y,Z Vertex 1 {m}
  15.3541565040626, 15.3541565040626, 0,  !- X,Y,Z Vertex 2 {m}
  0, 15.3541565040626, 0,                 !- X,Y,Z Vertex 3 {m}
  0, 15.3541565040626, 4;                 !- X,Y,Z Vertex 4 {m}

OS:Surface,
  {957ed05f-51a3-4d94-87e4-bb8061c0ab4e}, !- Handle
  Surface 28,                             !- Name
  Wall,                                   !- Surface Type
  ,                                       !- Construction Name