
OS:Version,
  {3829948b-7096-4b70-a19a-2ef7bb8ca61c}, !- Handle
  0.10.0;                                 !- Version Identifier

OS:BuildingStory,
  {cf804449-4af6-4ea7-98ab-44e1d24a4edd}, !- Handle
  Story 1,                                !- Name
  0,                                      !- Nominal Z Coordinate {m}
  4,                                      !- Nominal Floor to Floor Height {m}
  ,                                       !- Default Construction Set Name
  ,                                       !- Default Schedule Set Name
  ;                                       !- Group Rendering Name

OS:Space,
  {39525146-27af-455e-a356-45332fac761c}, !- Handle
  Story 1 West Perimeter Space,           !- Name
  ,                                       !- Space Type Name
  ,                                       !- Default Construction Set Name
  ,                                       !- Default Schedule Set Name
  -0,                                     !- Direction of Relative North {deg}
  0,                                      !- X Origin {m}
  0,                                      !- Y Origin {m}
  0,                                      !- Z Origin {m}
  {cf804449-4af6-4ea7-98ab-44e1d24a4edd}, !- Building Story Name
  {04f12da4-ea30-4528-bd2b-7604934108dd}; !- Thermal Zone Name

OS:Surface,
  {c04681bc-d53d-4a5c-a4fd-a0c14da1c8d3}, !- Handle
  Surface 1,                              !- Name
  Floor,                                  !- Surface Type
  ,                                       !- Construction Name
  {39525146-27af-455e-a356-45332fac761c}, !- Space Name
  Ground,                                 !- Outside Boundary Condition
  ,                                       !- Outside Boundary Condition Object
  NoSun,                                  !- Sun Exposure
  NoWind,                                 !- Wind Exposure
  ,                                       !- View Factor to Ground
  ,                                       !- Number of Vertices
  0, 0, 0,                                !- X,Y,Z Vertex 1 {m}
  0, 17.0782512765993, 0,                 !- X,Y,Z Vertex 2 {m}
  3, 14.0782512765993, 0,                 !- X,Y,Z Vertex 3 {m}
  3, 3, 0;                                !- X,Y,Z Vertex 4 {m}

OS:Surface,
  {8a39a009-fd1a-4d3c-afd4-e55736332e22}, !- Handle
  Surface 2,                              !- Name
  Wall,                                   !- Surface Type
  ,                                       !- Construction Name
  {39525146-27af-455e-a356-45332fac761c}, !- Space Name
  Outdoors,                               !- Outside Boundary Condition
  ,                                       !- Outside Boundary Condition Object
  SunExposed,                             !- Sun Exposure
  WindExposed,                            !- Wind Exposure
  ,                                       !- View Factor to Ground
  ,                                       !- Number of Vertices
  0, 17.0782512765993, 4,                 !- X,Y,Z Vertex 1 {m}
  0, 17.0782512765993, 0,                 !- X,Y,Z Vertex 2 {m}
  0, 0, 0,                                !- X,Y,Z Vertex 3 {m}
  0, 0, 4;                                !- X,Y,Z Vertex 4 {m}

OS:Surface,
  {09ea6af5-50d6-4a67-9617-f20f5a4c366a}, !- Handle
  Surface 3,                              !- Name
  Wall,                                   !- Surface Type
  ,                                       !- Construction Name
  {39525146-27af-455e-a356-45332fac761c}, !- Space Name
  Surface,                                !- Outside Boundary Condition
  {4f4da3ae-fdee-41cf-a6fb-5a02c6f20070}, !- Outside Boundary Condition Object
  NoSun,                                  !- Sun Exposure
  NoWind,                                 !- Wind Exposure
  ,                                       !- View Factor to Ground
  ,                                       !- Number of Vertices
  3, 14.0782512765993, 4,                 !- X,Y,Z Vertex 1 {m}
  3, 14.0782512765993, 0,                 !- X,Y,Z Vertex 2 {m}
  0, 17.0782512765993, 0,                 !- X,Y,Z Vertex 3 {m}
  0, 17.0782512765993, 4;                 !- X,Y,Z Vertex 4 {m}

OS:Surface,
  {e14ca1ea-5d8f-4200-b878-0752e9be19bd}, !- Handle
  Surface 4,                              !- Name
  Wall,                                   !- Surface Type
  ,                                       !- Construction Name
  {39525146-27af-455e-a356-45332fac761c}, !- Space Name
  Surface,                                !- Outside Boundary Condition
  {46529808-9ef4-4c2f-bf10-d0f534855eeb}, !- Outside Boundary Condition Object
  NoSun,                                  !- Sun Exposure
  NoWind,                                 !- Wind Exposure
  ,                                       !- View Factor to Ground
  ,                                       !- Number of Vertices
  3, 3, 4,                                !- X,Y,Z Vertex 1 {m}
  3, 3, 0,                                !- X,Y,Z Vertex 2 {m}
  3, 14.0782512765993, 0,                 !- X,Y,Z Vertex 3 {m}
  3, 14.0782512765993, 4;                 !- X,Y,Z Vertex 4 {m}

OS:Surface,
  {b03f2114-2cf9-45b5-ae02-0ffe314ba692}, !- Handle
  Surface 5,                              !- Name
  Wall,                                   !- Surface Type
  ,                                       !- Construction Name
  {39525146-27af-455e-a356-45332fac761c}, !- Space Name
  Surface,                                !- Outside Boundary Condition
  {7337f75e-a85c-43a8-8b39-499ee99cd344}, !- Outside Boundary Condition Object
  NoSun,                                  !- Sun Exposure
  NoWind,                                 !- Wind Exposure
  ,                                       !- View Factor to Ground
  ,                                       !- Number of Vertices
  0, 0, 4,                                !- X,Y,Z Vertex 1 {m}
  0, 0, 0,                                !- X,Y,Z Vertex 2 {m}
  3, 3, 0,                                !- X,Y,Z Vertex 3 {m}
  3, 3, 4;                                !- X,Y,Z Vertex 4 {m}

OS:Surface,
  {51e8c462-89f9-4374-a41b-8c308a5d8042}, !- Handle
  Surface 6,                              !- Name
  RoofCeiling,                            !- Surface Type
  ,                                       !- Construction Name
  {39525146-27af-455e-a356-45332fac761c}, !- Space Name
  Surface,                                !- Outside Boundary Condition
  {1a56e9eb-4d39-4c56-8bf7-d163071b2237}, !- Outside Boundary Condition Object
  NoSun,                                  !- Sun Exposure
  NoWind,                                 !- Wind Exposure
  ,                                       !- View Factor to Ground
  ,                                       !- Number of Vertices
  3, 3, 4,                                !- X,Y,Z Vertex 1 {m}
  3, 14.0782512765993, 4,                 !- X,Y,Z Vertex 2 {m}
  0, 17.0782512765993, 4,                 !- X,Y,Z Vertex 3 {m}
  0, 0, 4;                                !- X,Y,Z Vertex 4 {m}

OS:Space,
  {ad314413-7623-49ee-b673-9add195c2336}, !- Handle
  Story 1 North Perimeter Space,          !- Name
  ,                                       !- Space Type Name
  ,                                       !- Default Construction Set Name
  ,                                       !- Default Schedule Set Name
  -0,                                     !- Direction of Relative North {deg}
  3,                                      !- X Origin {m}
  14.0782512765993,                       !- Y Origin {m}
  0,                                      !- Z Origin {m}
  {cf804449-4af6-4ea7-98ab-44e1d24a4edd}, !- Building Story Name
  {7472058a-763f-4821-a8c3-7ea38ff82768}; !- Thermal Zone Name

OS:Surface,
  {aaded8b0-05e7-4ecf-ba1b-e08fcd7a81dc}, !- Handle
  Surface 7,                              !- Name
  Floor,                                  !- Surface Type
  ,                                       !- Construction Name
  {ad314413-7623-49ee-b673-9add195c2336}, !- Space Name
  Ground,                                 !- Outside Boundary Condition
  ,                                       !- Outside Boundary Condition Object
  NoSun,                                  !- Sun Exposure
  NoWind,                                 !- Wind Exposure
  ,                                       !- View Factor to Ground
  ,                                       !- Number of Vertices
  -3, 2.99999999999997, 0,                !- X,Y,Z Vertex 1 {m}
  14.0782512765993, 2.99999999999997, 0,  !- X,Y,Z Vertex 2 {m}
  11.0782512765993, -3.19744231092045e-14, 0, !- X,Y,Z Vertex 3 {m}
  0, -3.19744231092045e-14, 0;            !- X,Y,Z Vertex 4 {m}

OS:Surface,
  {46768c76-7fc2-4d6f-adc8-ace6ab1f357b}, !- Handle
  Surface 8,                              !- Name
  Wall,                                   !- Surface Type
  ,                                       !- Construction Name
  {ad314413-7623-49ee-b673-9add195c2336}, !- Space Name
  Outdoors,                               !- Outside Boundary Condition
  ,                                       !- Outside Boundary Condition Object
  SunExposed,                             !- Sun Exposure
  WindExposed,                            !- Wind Exposure
  ,                                       !- View Factor to Ground
  ,                                       !- Number of Vertices
  14.0782512765993, 2.99999999999997, 4,  !- X,Y,Z Vertex 1 {m}
  14.0782512765993, 2.99999999999997, 0,  !- X,Y,Z Vertex 2 {m}
  -3, 2.99999999999997, 0,                !- X,Y,Z Vertex 3 {m}
  -3, 2.99999999999997, 4;                !- X,Y,Z Vertex 4 {m}

OS:Surface,
  {0a872d83-f3a5-4ef7-94ff-f342d263b3dd}, !- Handle
  Surface 9,                              !- Name
  Wall,                                   !- Surface Type
  ,                                       !- Construction Name
  {ad314413-7623-49ee-b673-9add195c2336}, !- Space Name
  Surface,                                !- Outside Boundary Condition
  {1b5b2956-1074-4561-a373-e29271fd8b10}, !- Outside Boundary Condition Object
  NoSun,                                  !- Sun Exposure
  NoWind,                                 !- Wind Exposure
  ,                                       !- View Factor to Ground
  ,                                       !- Number of Vertices
  11.0782512765993, -3.19744231092045e-14, 4, !- X,Y,Z Vertex 1 {m}
  11.0782512765993, -3.19744231092045e-14, 0, !- X,Y,Z Vertex 2 {m}
  14.0782512765993, 2.99999999999997, 0,  !- X,Y,Z Vertex 3 {m}
  14.0782512765993, 2.99999999999997, 4;  !- X,Y,Z Vertex 4 {m}

OS:Surface,
  {553b0ad6-04a7-46fd-852e-cfc9982c9e7e}, !- Handle
  Surface 10,                             !- Name
  Wall,                                   !- Surface Type
  ,                                       !- Construction Name
  {ad314413-7623-49ee-b673-9add195c2336}, !- Space Name
  Surface,                                !- Outside Boundary Condition
  {56f48bb8-a885-40e3-bc20-5623a94ea99b}, !- Outside Boundary Condition Object
  NoSun,                                  !- Sun Exposure
  NoWind,                                 !- Wind Exposure
  ,                                       !- View Factor to Ground
  ,                                       !- Number of Vertices
  0, -3.19744231092045e-14, 4,            !- X,Y,Z Vertex 1 {m}
  0, -3.19744231092045e-14, 0,            !- X,Y,Z Vertex 2 {m}
  11.0782512765993, -3.19744231092045e-14, 0, !- X,Y,Z Vertex 3 {m}
  11.0782512765993, -3.19744231092045e-14, 4; !- X,Y,Z Vertex 4 {m}

OS:Surface,
  {4f4da3ae-fdee-41cf-a6fb-5a02c6f20070}, !- Handle
  Surface 11,                             !- Name
  Wall,                                   !- Surface Type
  ,                                       !- Construction Name
  {ad314413-7623-49ee-b673-9add195c2336}, !- Space Name
  Surface,                                !- Outside Boundary Condition
  {09ea6af5-50d6-4a67-9617-f20f5a4c366a}, !- Outside Boundary Condition Object
  NoSun,                                  !- Sun Exposure
  NoWind,                                 !- Wind Exposure
  ,                                       !- View Factor to Ground
  ,                                       !- Number of Vertices
  -3, 2.99999999999997, 4,                !- X,Y,Z Vertex 1 {m}
  -3, 2.99999999999997, 0,                !- X,Y,Z Vertex 2 {m}
  0, -3.19744231092045e-14, 0,            !- X,Y,Z Vertex 3 {m}
  0, -3.19744231092045e-14, 4;            !- X,Y,Z Vertex 4 {m}

OS:Surface,
  {8290e14b-3ea8-48c5-b4e7-eb4ada073790}, !- Handle
  Surface 12,                             !- Name
  RoofCeiling,                            !- Surface Type
  ,                                       !- Construction Name
  {ad314413-7623-49ee-b673-9add195c2336}, !- Space Name
  Surface,                                !- Outside Boundary Condition
  {6470136d-7131-4276-bdbc-256f1f0dcc9e}, !- Outside Boundary Condition Object
  NoSun,                                  !- Sun Exposure
  NoWind,                                 !- Wind Exposure
  ,                                       !- View Factor to Ground
  ,                                       !- Number of Vertices
  0, -3.19744231092045e-14, 4,            !- X,Y,Z Vertex 1 {m}
  11.0782512765993, -3.19744231092045e-14, 4, !- X,Y,Z Vertex 2 {m}
  14.0782512765993, 2.99999999999997, 4,  !- X,Y,Z Vertex 3 {m}
  -3, 2.99999999999997, 4;                !- X,Y,Z Vertex 4 {m}

OS:Space,
  {4c940679-57e6-4872-8a45-575334c8b70f}, !- Handle
  Story 1 East Perimeter Space,           !- Name
  ,                                       !- Space Type Name
  ,                                       !- Default Construction Set Name
  ,                                       !- Default Schedule Set Name
  -0,                                     !- Direction of Relative North {deg}
  14.0782512765993,                       !- X Origin {m}
  3,                                      !- Y Origin {m}
  0,                                      !- Z Origin {m}
  {cf804449-4af6-4ea7-98ab-44e1d24a4edd}, !- Building Story Name
  {70b77cde-2b40-45f8-83b0-b78749d54b44}; !- Thermal Zone Name

OS:Surface,
  {1c1a187e-8a76-4f42-bbfa-0e160f63b8b1}, !- Handle
  Surface 13,                             !- Name
  Floor,                                  !- Surface Type
  ,                                       !- Construction Name
  {4c940679-57e6-4872-8a45-575334c8b70f}, !- Space Name
  Ground,                                 !- Outside Boundary Condition
  ,                                       !- Outside Boundary Condition Object
  NoSun,                                  !- Sun Exposure
  NoWind,                                 !- Wind Exposure
  ,                                       !- View Factor to Ground
  ,                                       !- Number of Vertices
  2.99999999999997, 14.0782512765993, 0,  !- X,Y,Z Vertex 1 {m}
  2.99999999999997, -3, 0,                !- X,Y,Z Vertex 2 {m}
  -3.19744231092045e-14, 0, 0,            !- X,Y,Z Vertex 3 {m}
  -3.19744231092045e-14, 11.0782512765993, 0; !- X,Y,Z Vertex 4 {m}

OS:Surface,
  {2bb6f113-07a6-450f-9843-7f7112c2a24b}, !- Handle
  Surface 14,                             !- Name
  Wall,                                   !- Surface Type
  ,                                       !- Construction Name
  {4c940679-57e6-4872-8a45-575334c8b70f}, !- Space Name
  Outdoors,                               !- Outside Boundary Condition
  ,                                       !- Outside Boundary Condition Object
  SunExposed,                             !- Sun Exposure
  WindExposed,                            !- Wind Exposure
  ,                                       !- View Factor to Ground
  ,                                       !- Number of Vertices
  2.99999999999997, -3, 4,                !- X,Y,Z Vertex 1 {m}
  2.99999999999997, -3, 0,                !- X,Y,Z Vertex 2 {m}
  2.99999999999997, 14.0782512765993, 0,  !- X,Y,Z Vertex 3 {m}
  2.99999999999997, 14.0782512765993, 4;  !- X,Y,Z Vertex 4 {m}

OS:Surface,
  {f0f7dc8f-8d9c-4ab4-aab4-160c7dab9fe2}, !- Handle
  Surface 15,                             !- Name
  Wall,                                   !- Surface Type
  ,                                       !- Construction Name
  {4c940679-57e6-4872-8a45-575334c8b70f}, !- Space Name
  Surface,                                !- Outside Boundary Condition
  {955054ba-dd65-4357-a4e7-3b45e931d780}, !- Outside Boundary Condition Object
  NoSun,                                  !- Sun Exposure
  NoWind,                                 !- Wind Exposure
  ,                                       !- View Factor to Ground
  ,                                       !- Number of Vertices
  -3.19744231092045e-14, 0, 4,            !- X,Y,Z Vertex 1 {m}
  -3.19744231092045e-14, 0, 0,            !- X,Y,Z Vertex 2 {m}
  2.99999999999997, -3, 0,                !- X,Y,Z Vertex 3 {m}
  2.99999999999997, -3, 4;                !- X,Y,Z Vertex 4 {m}

OS:Surface,
  {2b52129b-fa90-4c48-bf1d-7046c4809204}, !- Handle
  Surface 16,                             !- Name
  Wall,                                   !- Surface Type
  ,                                       !- Construction Name
  {4c940679-57e6-4872-8a45-575334c8b70f}, !- Space Name
  Surface,                                !- Outside Boundary Condition
  {421ed030-5cf5-49a8-99cd-511e0d2b9818}, !- Outside Boundary Condition Object
  NoSun,                                  !- Sun Exposure
  NoWind,                                 !- Wind Exposure
  ,                                       !- View Factor to Ground
  ,                                       !- Number of Vertices
  -3.19744231092045e-14, 11.0782512765993, 4, !- X,Y,Z Vertex 1 {m}
  -3.19744231092045e-14, 11.0782512765993, 0, !- X,Y,Z Vertex 2 {m}
  -3.19744231092045e-14, 0, 0,            !- X,Y,Z Vertex 3 {m}
  -3.19744231092045e-14, 0, 4;            !- X,Y,Z Vertex 4 {m}

OS:Surface,
  {1b5b2956-1074-4561-a373-e29271fd8b10}, !- Handle
  Surface 17,                             !- Name
  Wall,                                   !- Surface Type
  ,                                       !- Construction Name
  {4c940679-57e6-4872-8a45-575334c8b70f}, !- Space Name
  Surface,                                !- Outside Boundary Condition
  {0a872d83-f3a5-4ef7-94ff-f342d263b3dd}, !- Outside Boundary Condition Object
  NoSun,                                  !- Sun Exposure
  NoWind,                                 !- Wind Exposure
  ,                                       !- View Factor to Ground
  ,                                       !- Number of Vertices
  2.99999999999997, 14.0782512765993, 4,  !- X,Y,Z Vertex 1 {m}
  2.99999999999997, 14.0782512765993, 0,  !- X,Y,Z Vertex 2 {m}
  -3.19744231092045e-14, 11.0782512765993, 0, !- X,Y,Z Vertex 3 {m}
  -3.19744231092045e-14, 11.0782512765993, 4; !- X,Y,Z Vertex 4 {m}

OS:Surface,
  {0dc92a6c-8dbf-4c17-a1d9-5bfd28f88278}, !- Handle
  Surface 18,                             !- Name
  RoofCeiling,                            !- Surface Type
  ,                                       !- Construction Name
  {4c940679-57e6-4872-8a45-575334c8b70f}, !- Space Name
  Surface,                                !- Outside Boundary Condition
  {ebf5bd82-7d77-47f5-a2cf-d7796fc8aea3}, !- Outside Boundary Condition Object
  NoSun,                                  !- Sun Exposure
  NoWind,                                 !- Wind Exposure
  ,                                       !- View Factor to Ground
  ,                                       !- Number of Vertices
  -3.19744231092045e-14, 11.0782512765993, 4, !- X,Y,Z Vertex 1 {m}
  -3.19744231092045e-14, 0, 4,            !- X,Y,Z Vertex 2 {m}
  2.99999999999997, -3, 4,                !- X,Y,Z Vertex 3 {m}
  2.99999999999997, 14.0782512765993, 4;  !- X,Y,Z Vertex 4 {m}

OS:Space,
  {2c2a7d27-0677-4937-89ae-84481fec9136}, !- Handle
  Story 1 South Perimeter Space,          !- Name
  ,                                       !- Space Type Name
  ,                                       !- Default Construction Set Name
  ,                                       !- Default Schedule Set Name
  -0,                                     !- Direction of Relative North {deg}
  0,                                      !- X Origin {m}
  0,                                      !- Y Origin {m}
  0,                                      !- Z Origin {m}
  {cf804449-4af6-4ea7-98ab-44e1d24a4edd}, !- Building Story Name
  {4b844437-1901-4199-a1e5-85348ad5c235}; !- Thermal Zone Name

OS:Surface,
  {dc749f0f-131e-4f52-a8bd-197802445641}, !- Handle
  Surface 19,                             !- Name
  Floor,                                  !- Surface Type
  ,                                       !- Construction Name
  {2c2a7d27-0677-4937-89ae-84481fec9136}, !- Space Name
  Ground,                                 !- Outside Boundary Condition
  ,                                       !- Outside Boundary Condition Object
  NoSun,                                  !- Sun Exposure
  NoWind,                                 !- Wind Exposure
  ,                                       !- View Factor to Ground
  ,                                       !- Number of Vertices
  17.0782512765993, 0, 0,                 !- X,Y,Z Vertex 1 {m}
  0, 0, 0,                                !- X,Y,Z Vertex 2 {m}
  3, 3, 0,                                !- X,Y,Z Vertex 3 {m}
  14.0782512765993, 3, 0;                 !- X,Y,Z Vertex 4 {m}

OS:Surface,
  {de7a5606-b440-4a11-bdad-e8374fd08817}, !- Handle
  Surface 20,                             !- Name
  Wall,                                   !- Surface Type
  ,                                       !- Construction Name
  {2c2a7d27-0677-4937-89ae-84481fec9136}, !- Space Name
  Outdoors,                               !- Outside Boundary Condition
  ,                                       !- Outside Boundary Condition Object
  SunExposed,                             !- Sun Exposure
  WindExposed,                            !- Wind Exposure
  ,                                       !- View Factor to Ground
  ,                                       !- Number of Vertices
  0, 0, 4,                                !- X,Y,Z Vertex 1 {m}
  0, 0, 0,                                !- X,Y,Z Vertex 2 {m}
  17.0782512765993, 0, 0,                 !- X,Y,Z Vertex 3 {m}
  17.0782512765993, 0, 4;                 !- X,Y,Z Vertex 4 {m}

OS:Surface,
  {7337f75e-a85c-43a8-8b39-499ee99cd344}, !- Handle
  Surface 21,                             !- Name
  Wall,                                   !- Surface Type
  ,                                       !- Construction Name
  {2c2a7d27-0677-4937-89ae-84481fec9136}, !- Space Name
  Surface,                                !- Outside Boundary Condition
  {b03f2114-2cf9-45b5-ae02-0ffe314ba692}, !- Outside Boundary Condition Object
  NoSun,                                  !- Sun Exposure
  NoWind,                                 !- Wind Exposure
  ,                                       !- View Factor to Ground
  ,                                       !- Number of Vertices
  3, 3, 4,                                !- X,Y,Z Vertex 1 {m}
  3, 3, 0,                                !- X,Y,Z Vertex 2 {m}
  0, 0, 0,                                !- X,Y,Z Vertex 3 {m}
  0, 0, 4;                                !- X,Y,Z Vertex 4 {m}

OS:Surface,
  {c44f74b7-6e27-42b7-8f33-ee496b41b246}, !- Handle
  Surface 22,                             !- Name
  Wall,                                   !- Surface Type
  ,                                       !- Construction Name
  {2c2a7d27-0677-4937-89ae-84481fec9136}, !- Space Name
  Surface,                                !- Outside Boundary Condition
  {7551e2bf-59f4-4c18-86dc-17b157daf73f}, !- Outside Boundary Condition Object
  NoSun,                                  !- Sun Exposure
  NoWind,                                 !- Wind Exposure
  ,                                       !- View Factor to Ground
  ,                                       !- Number of Vertices
  14.0782512765993, 3, 4,                 !- X,Y,Z Vertex 1 {m}
  14.0782512765993, 3, 0,                 !- X,Y,Z Vertex 2 {m}
  3, 3, 0,                                !- X,Y,Z Vertex 3 {m}
  3, 3, 4;                                !- X,Y,Z Vertex 4 {m}

OS:Surface,
  {955054ba-dd65-4357-a4e7-3b45e931d780}, !- Handle
  Surface 23,                             !- Name
  Wall,                                   !- Surface Type
  ,                                       !- Construction Name
  {2c2a7d27-0677-4937-89ae-84481fec9136}, !- Space Name
  Surface,                                !- Outside Boundary Condition
  {f0f7dc8f-8d9c-4ab4-aab4-160c7dab9fe2}, !- Outside Boundary Condition Object
  NoSun,                                  !- Sun Exposure
  NoWind,                                 !- Wind Exposure
  ,                                       !- View Factor to Ground
  ,                                       !- Number of Vertices
  17.0782512765993, 0, 4,                 !- X,Y,Z Vertex 1 {m}
  17.0782512765993, 0, 0,                 !- X,Y,Z Vertex 2 {m}
  14.0782512765993, 3, 0,                 !- X,Y,Z Vertex 3 {m}
  14.0782512765993, 3, 4;                 !- X,Y,Z Vertex 4 {m}

OS:Surface,
  {9cae9236-a0a0-4dab-b056-7e9a88e06a7a}, !- Handle
  Surface 24,                             !- Name
  RoofCeiling,                            !- Surface Type
  ,                                       !- Construction Name
  {2c2a7d27-0677-4937-89ae-84481fec9136}, !- Space Name
  Surface,                                !- Outside Boundary Condition
  {bb42d888-6feb-4467-ab65-5d9c234d999a}, !- Outside Boundary Condition Object
  NoSun,                                  !- Sun Exposure
  NoWind,                                 !- Wind Exposure
  ,                                       !- View Factor to Ground
  ,                                       !- Number of Vertices
  14.0782512765993, 3, 4,                 !- X,Y,Z Vertex 1 {m}
  3, 3, 4,                                !- X,Y,Z Vertex 2 {m}
  0, 0, 4,                                !- X,Y,Z Vertex 3 {m}
  17.0782512765993, 0, 4;                 !- X,Y,Z Vertex 4 {m}

OS:Space,
  {ea74488c-82ed-4ef1-9eb6-e779e076dd40}, !- Handle
  Story 1 Core Space,                     !- Name
  ,                                       !- Space Type Name
  ,                                       !- Default Construction Set Name
  ,                                       !- Default Schedule Set Name
  -0,                                     !- Direction of Relative North {deg}
  3,                                      !- X Origin {m}
  3,                                      !- Y Origin {m}
  0,                                      !- Z Origin {m}
  {cf804449-4af6-4ea7-98ab-44e1d24a4edd}, !- Building Story Name
  {2c850bc9-c643-49f7-a36b-5b0fb3627635}; !- Thermal Zone Name

OS:Surface,
  {94fb0240-8f76-4f15-aa4b-34dbb6686f96}, !- Handle
  Surface 25,                             !- Name
  Floor,                                  !- Surface Type
  ,                                       !- Construction Name
  {ea74488c-82ed-4ef1-9eb6-e779e076dd40}, !- Space Name
  Ground,                                 !- Outside Boundary Condition
  ,                                       !- Outside Boundary Condition Object
  NoSun,                                  !- Sun Exposure
  NoWind,                                 !- Wind Exposure
  ,                                       !- View Factor to Ground
  ,                                       !- Number of Vertices
  0, 0, 0,                                !- X,Y,Z Vertex 1 {m}
  0, 11.0782512765993, 0,                 !- X,Y,Z Vertex 2 {m}
  11.0782512765993, 11.0782512765993, 0,  !- X,Y,Z Vertex 3 {m}
  11.0782512765993, 0, 0;                 !- X,Y,Z Vertex 4 {m}

OS:Surface,
  {46529808-9ef4-4c2f-bf10-d0f534855eeb}, !- Handle
  Surface 26,                             !- Name
  Wall,                                   !- Surface Type
  ,                                       !- Construction Name
  {ea74488c-82ed-4ef1-9eb6-e779e076dd40}, !- Space Name
  Surface,                                !- Outside Boundary Condition
  {e14ca1ea-5d8f-4200-b878-0752e9be19bd}, !- Outside Boundary Condition Object
  NoSun,                                  !- Sun Exposure
  NoWind,                                 !- Wind Exposure
  ,                                       !- View Factor to Ground
  ,                                       !- Number of Vertices
  0, 11.0782512765993, 4,                 !- X,Y,Z Vertex 1 {m}
  0, 11.0782512765993, 0,                 !- X,Y,Z Vertex 2 {m}
  0, 0, 0,                                !- X,Y,Z Vertex 3 {m}
  0, 0, 4;                                !- X,Y,Z Vertex 4 {m}

OS:Surface,
  {56f48bb8-a885-40e3-bc20-5623a94ea99b}, !- Handle
  Surface 27,                             !- Name
  Wall,                                   !- Surface Type
  ,                                       !- Construction Name
  {ea74488c-82ed-4ef1-9eb6-e779e076dd40}, !- Space Name
  Surface,                                !- Outside Boundary Condition
  {553b0ad6-04a7-46fd-852e-cfc9982c9e7e}, !- Outside Boundary Condition Object
  NoSun,                                  !- Sun Exposure
  NoWind,                                 !- Wind Exposure
  ,                                       !- View Factor to Ground
  ,                                       !- Number of Vertices
  11.0782512765993, 11.0782512765993, 4,  !- X,Y,Z Vertex 1 {m}
  11.0782512765993, 11.0782512765993, 0,  !- X,Y,Z Vertex 2 {m}
  0, 11.0782512765993, 0,                 !- X,Y,Z Vertex 3 {m}
  0, 11.0782512765993, 4;                 !- X,Y,Z Vertex 4 {m}

OS:Surface,
  {421ed030-5cf5-49a8-99cd-511e0d2b9818}, !- Handle
  Surface 28,                             !- Name
  Wall,                                   !- Surface Type
  ,                                       !- Construction Name