
OS:Version,
  {245d7db2-a5d5-4bb2-bbe5-61d89394d1d5}, !- Handle
  0.10.0;                                 !- Version Identifier

OS:BuildingStory,
  {4a733015-49d9-4450-822e-629923b38928}, !- Handle
  Story 1,                                !- Name
  0,                                      !- Nominal Z Coordinate {m}
  4,                                      !- Nominal Floor to Floor Height {m}
  ,                                       !- Default Construction Set Name
  ,                                       !- Default Schedule Set Name
  ;                                       !- Group Rendering Name

OS:Space,
  {55113cea-2dea-4baf-b21b-bc96ca9db428}, !- Handle
  Story 1 West Perimeter Space,           !- Name
  ,                                       !- Space Type Name
  ,                                       !- Default Construction Set Name
  ,                                       !- Default Schedule Set Name
  -0,                                     !- Direction of Relative North {deg}
  0,                                      !- X Origin {m}
  0,                                      !- Y Origin {m}
  0,                                      !- Z Origin {m}
  {4a733015-49d9-4450-822e-629923b38928}, !- Building Story Name
  {5475acd6-09f1-430a-8f88-7bc877dedb63}; !- Thermal Zone Name

OS:Surface,
  {532463ff-ba55-40f3-a37c-31687f634307}, !- Handle
  Surface 1,                              !- Name
  Floor,                                  !- Surface Type
  ,                                       !- Construction Name
  {55113cea-2dea-4baf-b21b-bc96ca9db428}, !- Space Name
  Ground,                                 !- Outside Boundary Condition
  ,                                       !- Outside Boundary Condition Object
  NoSun,                                  !- Sun Exposure
  NoWind,                                 !- Wind Exposure
  ,                                       !- View Factor to Ground
  ,                                       !- Number of Vertices
  0, 0, 0,                                !- X,Y,Z Vertex 1 {m}
  0, 6.45497224367903, 0,                 !- X,Y,Z Vertex 2 {m}
  3, 3.45497224367903, 0,                 !- X,Y,Z Vertex 3 {m}
  3, 3, 0;                                !- X,Y,Z Vertex 4 {m}

OS:Surface,
  {39349aaa-33c3-4833-b32a-ee99b5499cd9}, !- Handle
  Surface 2,                              !- Name
  Wall,                                   !- Surface Type
  ,                                       !- Construction Name
  {55113cea-2dea-4baf-b21b-bc96ca9db428}, !- Space Name
  Outdoors,                               !- Outside Boundary Condition
  ,                                       !- Outside Boundary Condition Object
  SunExposed,                             !- Sun Exposure
  WindExposed,                            !- Wind Exposure
  ,                                       !- View Factor to Ground
  ,                                       !- Number of Vertices
  0, 6.45497224367903, 4,                 !- X,Y,Z Vertex 1 {m}
  0, 6.45497224367903, 0,                 !- X,Y,Z Vertex 2 {m}
  0, 0, 0,                                !- X,Y,Z Vertex 3 {m}
  0, 0, 4;                                !- X,Y,Z Vertex 4 {m}

OS:Surface,
  {1f95e161-595a-4787-ba74-9a9a955845cb}, !- Handle
  Surface 3,                              !- Name
  Wall,                                   !- Surface Type
  ,                                       !- Construction Name
  {55113cea-2dea-4baf-b21b-bc96ca9db428}, !- Space Name
  Surface,                                !- Outside Boundary Condition
  {9757906a-cc2c-4436-ba15-7729d7f39c6e}, !- Outside Boundary Condition Object
  NoSun,                                  !- Sun Exposure
  NoWind,                                 !- Wind Exposure
  ,                                       !- View Factor to Ground
  ,                                       !- Number of Vertices
  3, 3.45497224367903, 4,                 !- X,Y,Z Vertex 1 {m}
  3, 3.45497224367903, 0,                 !- X,Y,Z Vertex 2 {m}
  0, 6.45497224367903, 0,                 !- X,Y,Z Vertex 3 {m}
  0, 6.45497224367903, 4;                 !- X,Y,Z Vertex 4 {m}

OS:Surface,
  {1a47c19b-e73c-4d74-a9b9-8de7406ac956}, !- Handle
  Surface 4,                              !- Name
  Wall,                                   !- Surface Type
  ,                                       !- Construction Name
  {55113cea-2dea-4baf-b21b-bc96ca9db428}, !- Space Name
  Surface,                                !- Outside Boundary Condition
  {3fcc1255-acdd-4bb7-babf-16ed355fcbb4}, !- Outside Boundary Condition Object
  NoSun,                                  !- Sun Exposure
  NoWind,                                 !- Wind Exposure
  ,                                       !- View Factor to Ground
  ,                                       !- Number of Vertices
  3, 3, 4,                                !- X,Y,Z Vertex 1 {m}
  3, 3, 0,                                !- X,Y,Z Vertex 2 {m}
  3, 3.45497224367903, 0,                 !- X,Y,Z Vertex 3 {m}
  3, 3.45497224367903, 4;                 !- X,Y,Z Vertex 4 {m}

OS:Surface,
  {91d3811a-7934-4ce9-8619-58a3686c31c9}, !- Handle
  Surface 5,                              !- Name
  Wall,                                   !- Surface Type
  ,                                       !- Construction Name
  {55113cea-2dea-4baf-b21b-bc96ca9db428}, !- Space Name
  Surface,                                !- Outside Boundary Condition
  {9815a9c4-91d3-46c4-a968-820695799f16}, !- Outside Boundary Condition Object
  NoSun,                                  !- Sun Exposure
  NoWind,                                 !- Wind Exposure
  ,                                       !- View Factor to Ground
  ,                                       !- Number of Vertices
  0, 0, 4,                                !- X,Y,Z Vertex 1 {m}
  0, 0, 0,                                !- X,Y,Z Vertex 2 {m}
  3, 3, 0,                                !- X,Y,Z Vertex 3 {m}
  3, 3, 4;                                !- X,Y,Z Vertex 4 {m}

OS:Surface,
  {11ddd731-bb98-496c-b65b-16a6e232dec7}, !- Handle
  Surface 6,                              !- Name
  RoofCeiling,                            !- Surface Type
  ,                                       !- Construction Name
  {55113cea-2dea-4baf-b21b-bc96ca9db428}, !- Space Name
  Surface,                                !- Outside Boundary Condition
  {75064165-8c18-4747-b598-b9a3fc55cb72}, !- Outside Boundary Condition Object
  NoSun,                                  !- Sun Exposure
  NoWind,                                 !- Wind Exposure
  ,                                       !- View Factor to Ground
  ,                                       !- Number of Vertices
  3, 3, 4,                                !- X,Y,Z Vertex 1 {m}
  3, 3.45497224367903, 4,                 !- X,Y,Z Vertex 2 {m}
  0, 6.45497224367903, 4,                 !- X,Y,Z Vertex 3 {m}
  0, 0, 4;                                !- X,Y,Z Vertex 4 {m}

OS:Space,
  {ab2ad846-fb3b-410c-8c52-5d18ced7a05a}, !- Handle
  Story 1 North Perimeter Space,          !- Name
  ,                                       !- Space Type Name
  ,                                       !- Default Construction Set Name
  ,                                       !- Default Schedule Set Name
  -0,                                     !- Direction of Relative North {deg}
  3,                                      !- X Origin {m}
  3.45497224367903,                       !- Y Origin {m}
  0,                                      !- Z Origin {m}
  {4a733015-49d9-4450-822e-629923b38928}, !- Building Story Name
  {55fc4858-21f7-4bcd-8656-84d4efda4e51}; !- Thermal Zone Name

OS:Surface,
  {d1050f42-8d46-4310-870c-d95f5b866a1b}, !- Handle
  Surface 7,                              !- Name
  Floor,                                  !- Surface Type
  ,                                       !- Construction Name
  {ab2ad846-fb3b-410c-8c52-5d18ced7a05a}, !- Space Name
  Ground,                                 !- Outside Boundary Condition
  ,                                       !- Outside Boundary Condition Object
  NoSun,                                  !- Sun Exposure
  NoWind,                                 !- Wind Exposure
  ,                                       !- View Factor to Ground
  ,                                       !- Number of Vertices
  -3, 3, 0,                               !- X,Y,Z Vertex 1 {m}
  3.45497224367903, 3, 0,                 !- X,Y,Z Vertex 2 {m}
  0.45497224367903, 2.22044604925031e-15, 0, !- X,Y,Z Vertex 3 {m}
  0, 2.22044604925031e-15, 0;             !- X,Y,Z Vertex 4 {m}

OS:Surface,
  {7e5be8d6-fa73-4808-91e6-8dff3192e3d1}, !- Handle
  Surface 8,                              !- Name
  Wall,                                   !- Surface Type
  ,                                       !- Construction Name
  {ab2ad846-fb3b-410c-8c52-5d18ced7a05a}, !- Space Name
  Outdoors,                               !- Outside Boundary Condition
  ,                                       !- Outside Boundary Condition Object
  SunExposed,                             !- Sun Exposure
  WindExposed,                            !- Wind Exposure
  ,                                       !- View Factor to Ground
  ,                                       !- Number of Vertices
  3.45497224367903, 3, 4,                 !- X,Y,Z Vertex 1 {m}
  3.45497224367903, 3, 0,                 !- X,Y,Z Vertex 2 {m}
  -3, 3, 0,                               !- X,Y,Z Vertex 3 {m}
  -3, 3, 4;                               !- X,Y,Z Vertex 4 {m}

OS:Surface,
  {6e1eeccc-21f9-43a6-ad67-dc24271104d9}, !- Handle
  Surface 9,                              !- Name
  Wall,                                   !- Surface Type
  ,                                       !- Construction Name
  {ab2ad846-fb3b-410c-8c52-5d18ced7a05a}, !- Space Name
  Surface,                                !- Outside Boundary Condition
  {e96a5598-672d-406a-b79f-8f275df810a6}, !- Outside Boundary Condition Object
  NoSun,                                  !- Sun Exposure
  NoWind,                                 !- Wind Exposure
  ,                                       !- View Factor to Ground
  ,                                       !- Number of Vertices
  0.45497224367903, 2.22044604925031e-15, 4, !- X,Y,Z Vertex 1 {m}
  0.45497224367903, 2.22044604925031e-15, 0, !- X,Y,Z Vertex 2 {m}
  3.45497224367903, 3, 0,                 !- X,Y,Z Vertex 3 {m}
  3.45497224367903, 3, 4;                 !- X,Y,Z Vertex 4 {m}

OS:Surface,
  {befeed1d-9076-4228-99d6-d09a81dc12ec}, !- Handle
  Surface 10,                             !- Name
  Wall,                                   !- Surface Type
  ,                                       !- Construction Name
  {ab2ad846-fb3b-410c-8c52-5d18ced7a05a}, !- Space Name
  Surface,                                !- Outside Boundary Condition
  {5547ded5-bd3e-44e6-8886-14e6bbe8e3bc}, !- Outside Boundary Condition Object
  NoSun,                                  !- Sun Exposure
  NoWind,                                 !- Wind Exposure
  ,                                       !- View Factor to Ground
  ,                                       !- Number of Vertices
  0, 2.22044604925031e-15, 4,             !- X,Y,Z Vertex 1 {m}
  0, 2.22044604925031e-15, 0,             !- X,Y,Z Vertex 2 {m}
  0.45497224367903, 2.22044604925031e-15, 0, !- X,Y,Z Vertex 3 {m}
  0.45497224367903, 2.22044604925031e-15, 4; !- X,Y,Z Vertex 4 {m}

OS:Surface,
  {9757906a-cc2c-4436-ba15-7729d7f39c6e}, !- Handle
  Surface 11,                             !- Name
  Wall,                                   !- Surface Type
  ,                                       !- Construction Name
  {ab2ad846-fb3b-410c-8c52-5d18ced7a05a}, !- Space Name
  Surface,                                !- Outside Boundary Condition
  {1f95e161-595a-4787-ba74-9a9a955845cb}, !- Outside Boundary Condition Object
  NoSun,                                  !- Sun Exposure
  NoWind,                                 !- Wind Exposure
  ,                                       !- View Factor to Ground
  ,                                       !- Number of Vertices
  -3, 3, 4,                               !- X,Y,Z Vertex 1 {m}
  -3, 3, 0,                               !- X,Y,Z Vertex 2 {m}
  0, 2.22044604925031e-15, 0,             !- X,Y,Z Vertex 3 {m}
  0, 2.22044604925031e-15, 4;             !- X,Y,Z Vertex 4 {m}

OS:Surface,
  {cde3541a-fc1e-4285-b4b0-459fcede4388}, !- Handle
  Surface 12,                             !- Name
  RoofCeiling,                            !- Surface Type
  ,                                       !- Construction Name
  {ab2ad846-fb3b-410c-8c52-5d18ced7a05a}, !- Space Name
  Surface,                                !- Outside Boundary Condition
  {085a45a9-e489-42d5-b95e-6df97b1315d9}, !- Outside Boundary Condition Object
  NoSun,                                  !- Sun Exposure
  NoWind,                                 !- Wind Exposure
  ,                                       !- View Factor to Ground
  ,                                       !- Number of Vertices
  0, 2.22044604925031e-15, 4,             !- X,Y,Z Vertex 1 {m}
  0.45497224367903, 2.22044604925031e-15, 4, !- X,Y,Z Vertex 2 {m}
  3.45497224367903, 3, 4,                 !- X,Y,Z Vertex 3 {m}
  -3, 3, 4;                               !- X,Y,Z Vertex 4 {m}

OS:Space,
  {225b9005-f7fe-4cdd-b576-b4e97f63b5ea}, !- Handle
  Story 1 East Perimeter Space,           !- Name
  ,                                       !- Space Type Name
  ,                                       !- Default Construction Set Name
  ,                                       !- Default Schedule Set Name
  -0,                                     !- Direction of Relative North {deg}
  3.45497224367903,                       !- X Origin {m}
  3,                                      !- Y Origin {m}
  0,                                      !- Z Origin {m}
  {4a733015-49d9-4450-822e-629923b38928}, !- Building Story Name
  {7fdec96d-e68f-45c3-a3b0-70f628b144f2}; !- Thermal Zone Name

OS:Surface,
  {31083c11-7a5d-46c2-bf92-bbdbf486a8fd}, !- Handle
  Surface 13,                             !- Name
  Floor,                                  !- Surface Type
  ,                                       !- Construction Name
  {225b9005-f7fe-4cdd-b576-b4e97f63b5ea}, !- Space Name
  Ground,                                 !- Outside Boundary Condition
  ,                                       !- Outside Boundary Condition Object
  NoSun,                                  !- Sun Exposure
  NoWind,                                 !- Wind Exposure
  ,                                       !- View Factor to Ground
  ,                                       !- Number of Vertices
  3, 3.45497224367903, 0,                 !- X,Y,Z Vertex 1 {m}
  3, -3, 0,                               !- X,Y,Z Vertex 2 {m}
  2.22044604925031e-15, 0, 0,             !- X,Y,Z Vertex 3 {m}
  2.22044604925031e-15, 0.45497224367903, 0; !- X,Y,Z Vertex 4 {m}

OS:Surface,
  {6e7b3c2e-9203-4c7f-9953-3c1b4bce3b42}, !- Handle
  Surface 14,                             !- Name
  Wall,                                   !- Surface Type
  ,                                       !- Construction Name
  {225b9005-f7fe-4cdd-b576-b4e97f63b5ea}, !- Space Name
  Outdoors,                               !- Outside Boundary Condition
  ,                                       !- Outside Boundary Condition Object
  SunExposed,                             !- Sun Exposure
  WindExposed,                            !- Wind Exposure
  ,                                       !- View Factor to Ground
  ,                                       !- Number of Vertices
  3, -3, 4,                               !- X,Y,Z Vertex 1 {m}
  3, -3, 0,                               !- X,Y,Z Vertex 2 {m}
  3, 3.45497224367903, 0,                 !- X,Y,Z Vertex 3 {m}
  3, 3.45497224367903, 4;                 !- X,Y,Z Vertex 4 {m}

OS:Surface,
  {5656cb52-84ca-47f6-a883-802c929c07bb}, !- Handle
  Surface 15,                             !- Name
  Wall,                                   !- Surface Type
  ,                                       !- Construction Name
  {225b9005-f7fe-4cdd-b576-b4e97f63b5ea}, !- Space Name
  Surface,                                !- Outside Boundary Condition
  {ca8c863f-fa45-4833-8e9b-2c7840d7c05b}, !- Outside Boundary Condition Object
  NoSun,                                  !- Sun Exposure
  NoWind,                                 !- Wind Exposure
  ,                                       !- View Factor to Ground
  ,                                       !- Number of Vertices
  2.22044604925031e-15, 0, 4,             !- X,Y,Z Vertex 1 {m}
  2.22044604925031e-15, 0, 0,             !- X,Y,Z Vertex 2 {m}
  3, -3, 0,                               !- X,Y,Z Vertex 3 {m}
  3, -3, 4;                               !- X,Y,Z Vertex 4 {m}

OS:Surface,
  {9bb3d9c9-cafa-47c0-941a-2baec9d7275d}, !- Handle
  Surface 16,                             !- Name
  Wall,                                   !- Surface Type
  ,                                       !- Construction Name
  {225b9005-f7fe-4cdd-b576-b4e97f63b5ea}, !- Space Name
  Surface,                                !- Outside Boundary Condition
  {8d65032d-9be8-4852-9c4c-3784a57b62aa}, !- Outside Boundary Condition Object
  NoSun,                                  !- Sun Exposure
  NoWind,                                 !- Wind Exposure
  ,                                       !- View Factor to Ground
  ,                                       !- Number of Vertices
  2.22044604925031e-15, 0.45497224367903, 4, !- X,Y,Z Vertex 1 {m}
  2.22044604925031e-15, 0.45497224367903, 0, !- X,Y,Z Vertex 2 {m}
  2.22044604925031e-15, 0, 0,             !- X,Y,Z Vertex 3 {m}
  2.22044604925031e-15, 0, 4;             !- X,Y,Z Vertex 4 {m}

OS:Surface,
  {e96a5598-672d-406a-b79f-8f275df810a6}, !- Handle
  Surface 17,                             !- Name
  Wall,                                   !- Surface Type
  ,                                       !- Construction Name
  {225b9005-f7fe-4cdd-b576-b4e97f63b5ea}, !- Space Name
  Surface,                                !- Outside Boundary Condition
  {6e1eeccc-21f9-43a6-ad67-dc24271104d9}, !- Outside Boundary Condition Object
  NoSun,                                  !- Sun Exposure
  NoWind,                                 !- Wind Exposure
  ,                                       !- View Factor to Ground
  ,                                       !- Number of Vertices
  3, 3.45497224367903, 4,                 !- X,Y,Z Vertex 1 {m}
  3, 3.45497224367903, 0,                 !- X,Y,Z Vertex 2 {m}
  2.22044604925031e-15, 0.45497224367903, 0, !- X,Y,Z Vertex 3 {m}
  2.22044604925031e-15, 0.45497224367903, 4; !- X,Y,Z Vertex 4 {m}

OS:Surface,
  {c04c0f41-c0a9-4c86-aa5c-9d666431f6e8}, !- Handle
  Surface 18,                             !- Name
  RoofCeiling,                            !- Surface Type
  ,                                       !- Construction Name
  {225b9005-f7fe-4cdd-b576-b4e97f63b5ea}, !- Space Name
  Surface,                                !- Outside Boundary Condition
  {8e27194d-e527-47f7-86c2-5b48c44c6a44}, !- Outside Boundary Condition Object
  NoSun,                                  !- Sun Exposure
  NoWind,                                 !- Wind Exposure
  ,                                       !- View Factor to Ground
  ,                                       !- Number of Vertices
  2.22044604925031e-15, 0.45497224367903, 4, !- X,Y,Z Vertex 1 {m}
  2.22044604925031e-15, 0, 4,             !- X,Y,Z Vertex 2 {m}
  3, -3, 4,                               !- X,Y,Z Vertex 3 {m}
  3, 3.45497224367903, 4;                 !- X,Y,Z Vertex 4 {m}

OS:Space,
  {2b2f3157-c3a7-415b-b9d3-b2258db18106}, !- Handle
  Story 1 South Perimeter Space,          !- Name
  ,                                       !- Space Type Name
  ,                                       !- Default Construction Set Name
  ,                                       !- Default Schedule Set Name
  -0,                                     !- Direction of Relative North {deg}
  0,                                      !- X Origin {m}
  0,                                      !- Y Origin {m}
  0,                                      !- Z Origin {m}
  {4a733015-49d9-4450-822e-629923b38928}, !- Building Story Name
  {50b29290-a8df-4675-83c2-ba9031711a95}; !- Thermal Zone Name

OS:Surface,
  {36266d23-86d8-43c3-978d-9730275abfad}, !- Handle
  Surface 19,                             !- Name
  Floor,                                  !- Surface Type
  ,                                       !- Construction Name
  {2b2f3157-c3a7-415b-b9d3-b2258db18106}, !- Space Name
  Ground,                                 !- Outside Boundary Condition
  ,                                       !- Outside Boundary Condition Object
  NoSun,                                  !- Sun Exposure
  NoWind,                                 !- Wind Exposure
  ,                                       !- View Factor to Ground
  ,                                       !- Number of Vertices
  6.45497224367903, 0, 0,                 !- X,Y,Z Vertex 1 {m}
  0, 0, 0,                                !- X,Y,Z Vertex 2 {m}
  3, 3, 0,                                !- X,Y,Z Vertex 3 {m}
  3.45497224367903, 3, 0;                 !- X,Y,Z Vertex 4 {m}

OS:Surface,
  {9af9ce0c-5ed2-4757-bec0-bfea28f12331}, !- Handle
  Surface 20,                             !- Name
  Wall,                                   !- Surface Type
  ,                                       !- Construction Name
  {2b2f3157-c3a7-415b-b9d3-b2258db18106}, !- Space Name
  Outdoors,                               !- Outside Boundary Condition
  ,                                       !- Outside Boundary Condition Object
  SunExposed,                             !- Sun Exposure
  WindExposed,                            !- Wind Exposure
  ,                                       !- View Factor to Ground
  ,                                       !- Number of Vertices
  0, 0, 4,                                !- X,Y,Z Vertex 1 {m}
  0, 0, 0,                                !- X,Y,Z Vertex 2 {m}
  6.45497224367903, 0, 0,                 !- X,Y,Z Vertex 3 {m}
  6.45497224367903, 0, 4;                 !- X,Y,Z Vertex 4 {m}

OS:Surface,
  {9815a9c4-91d3-46c4-a968-820695799f16}, !- Handle
  Surface 21,                             !- Name
  Wall,                                   !- Surface Type
  ,                                       !- Construction Name
  {2b2f3157-c3a7-415b-b9d3-b2258db18106}, !- Space Name
  Surface,                                !- Outside Boundary Condition
  {91d3811a-7934-4ce9-8619-58a3686c31c9}, !- Outside Boundary Condition Object
  NoSun,                                  !- Sun Exposure
  NoWind,                                 !- Wind Exposure
  ,                                       !- View Factor to Ground
  ,                                       !- Number of Vertices
  3, 3, 4,                                !- X,Y,Z Vertex 1 {m}
  3, 3, 0,                                !- X,Y,Z Vertex 2 {m}
  0, 0, 0,                                !- X,Y,Z Vertex 3 {m}
  0, 0, 4;                                !- X,Y,Z Vertex 4 {m}

OS:Surface,
  {1f394f44-13c2-42d4-96a1-133257fb7047}, !- Handle
  Surface 22,                             !- Name
  Wall,                                   !- Surface Type
  ,                                       !- Construction Name
  {2b2f3157-c3a7-415b-b9d3-b2258db18106}, !- Space Name
  Surface,                                !- Outside Boundary Condition
  {dd5a0ad7-0de9-45ff-89be-890d76c3c4e8}, !- Outside Boundary Condition Object
  NoSun,                                  !- Sun Exposure
  NoWind,                                 !- Wind Exposure
  ,                                       !- View Factor to Ground
  ,                                       !- Number of Vertices
  3.45497224367903, 3, 4,                 !- X,Y,Z Vertex 1 {m}
  3.45497224367903, 3, 0,                 !- X,Y,Z Vertex 2 {m}
  3, 3, 0,                                !- X,Y,Z Vertex 3 {m}
  3, 3, 4;                                !- X,Y,Z Vertex 4 {m}

OS:Surface,
  {ca8c863f-fa45-4833-8e9b-2c7840d7c05b}, !- Handle
  Surface 23,                             !- Name
  Wall,                                   !- Surface Type
  ,                                       !- Construction Name
  {2b2f3157-c3a7-415b-b9d3-b2258db18106}, !- Space Name
  Surface,                                !- Outside Boundary Condition
  {5656cb52-84ca-47f6-a883-802c929c07bb}, !- Outside Boundary Condition Object
  NoSun,                                  !- Sun Exposure
  NoWind,                                 !- Wind Exposure
  ,                                       !- View Factor to Ground
  ,                                       !- Number of Vertices
  6.45497224367903, 0, 4,                 !- X,Y,Z Vertex 1 {m}
  6.45497224367903, 0, 0,                 !- X,Y,Z Vertex 2 {m}
  3.45497224367903, 3, 0,                 !- X,Y,Z Vertex 3 {m}
  3.45497224367903, 3, 4;                 !- X,Y,Z Vertex 4 {m}

OS:Surface,
  {04ddd94c-aa68-42e6-a3a7-e964415f2505}, !- Handle
  Surface 24,                             !- Name
  RoofCeiling,                            !- Surface Type
  ,                                       !- Construction Name
  {2b2f3157-c3a7-415b-b9d3-b2258db18106}, !- Space Name
  Surface,                                !- Outside Boundary Condition
  {328ba280-7ebe-42a3-b951-397b25cc4f8d}, !- Outside Boundary Condition Object
  NoSun,                                  !- Sun Exposure
  NoWind,                                 !- Wind Exposure
  ,                                       !- View Factor to Ground
  ,                                       !- Number of Vertices
  3.45497224367903, 3, 4,                 !- X,Y,Z Vertex 1 {m}
  3, 3, 4,                                !- X,Y,Z Vertex 2 {m}
  0, 0, 4,                                !- X,Y,Z Vertex 3 {m}
  6.45497224367903, 0, 4;                 !- X,Y,Z Vertex 4 {m}

OS:Space,
  {b378e642-1cbb-4213-8e09-d3ccd03ebd2e}, !- Handle
  Story 1 Core Space,                     !- Name
  ,                                       !- Space Type Name
  ,                                       !- Default Construction Set Name
  ,                                       !- Default Schedule Set Name
  -0,                                     !- Direction of Relative North {deg}
  3,                                      !- X Origin {m}
  3,                                      !- Y Origin {m}
  0,                                      !- Z Origin {m}
  {4a733015-49d9-4450-822e-629923b38928}, !- Building Story Name
  {b365a665-77e5-4b29-9f00-766b11e97591}; !- Thermal Zone Name

OS:Surface,
  {e85eb7e6-1527-4264-8f32-c35cf13ef0db}, !- Handle
  Surface 25,                             !- Name
  Floor,                                  !- Surface Type
  ,                                       !- Construction Name
  {b378e642-1cbb-4213-8e09-d3ccd03ebd2e}, !- Space Name
  Ground,                                 !- Outside Boundary Condition
  ,                                       !- Outside Boundary Condition Object
  NoSun,                                  !- Sun Exposure
  NoWind,                                 !- Wind Exposure
  ,                                       !- View Factor to Ground
  ,                                       !- Number of Vertices
  0, 0, 0,                                !- X,Y,Z Vertex 1 {m}
  0, 0.45497224367903, 0,                 !- X,Y,Z Vertex 2 {m}
  0.45497224367903, 0.45497224367903, 0,  !- X,Y,Z Vertex 3 {m}
  0.45497224367903, 0, 0;                 !- X,Y,Z Vertex 4 {m}

OS:Surface,
  {3fcc1255-acdd-4bb7-babf-16ed355fcbb4}, !- Handle
  Surface 26,                             !- Name
  Wall,                                   !- Surface Type
  ,                                       !- Construction Name
  {b378e642-1cbb-4213-8e09-d3ccd03ebd2e}, !- Space Name
  Surface,                                !- Outside Boundary Condition
  {1a47c19b-e73c-4d74-a9b9-8de7406ac956}, !- Outside Boundary Condition Object
  NoSun,                                  !- Sun Exposure
  NoWind,                                 !- Wind Exposure
  ,                                       !- View Factor to Ground
  ,                                       !- Number of Vertices
  0, 0.45497224367903, 4,                 !- X,Y,Z Vertex 1 {m}
  0, 0.45497224367903, 0,                 !- X,Y,Z Vertex 2 {m}
  0, 0, 0,                                !- X,Y,Z Vertex 3 {m}
  0, 0, 4;                                !- X,Y,Z Vertex 4 {m}

OS:Surface,
  {5547ded5-bd3e-44e6-8886-14e6bbe8e3bc}, !- Handle
  Surface 27,                             !- Name
  Wall,                                   !- Surface Type
  ,                                       !- Construction Name
  {b378e642-1cbb-4213-8e09-d3ccd03ebd2e}, !- Space Name
  Surface,                                !- Outside Boundary Condition
  {befeed1d-9076-4228-99d6-d09a81dc12ec}, !- Outside Boundary Condition Object
  NoSun,                                  !- Sun Exposure
  NoWind,                                 !- Wind Exposure
  ,                                       !- View Factor to Ground
  ,                                       !- Number of Vertices
  0.45497224367903, 0.45497224367903, 4,  !- X,Y,Z Vertex 1 {m}
  0.45497224367903, 0.45497224367903, 0,  !- X,Y,Z Vertex 2 {m}
  0, 0.45497224367903, 0,                 !- X,Y,Z Vertex 3 {m}
  0, 0.45497224367903, 4;                 !- X,Y,Z Vertex 4 {m}

OS:Surface,
  {8d65032d-9be8-4852-9c4c-3784a57b62aa}, !- Handle
  Surface 28,                             !- Name
  Wall,                                   !- Surface Type
  ,                                       !- Construction Name