
OS:Version,
  {7842e395-a16d-471d-bc63-b3ef7582b85f}, !- Handle
  0.10.0;                                 !- Version Identifier

OS:BuildingStory,
  {5c5c6e71-2011-465e-a8da-52ef2fe2b9e4}, !- Handle
  Story 1,                                !- Name
  0,                                      !- Nominal Z Coordinate {m}
  4,                                      !- Nominal Floor to Floor Height {m}
  ,                                       !- Default Construction Set Name
  ,                                       !- Default Schedule Set Name
  ;                                       !- Group Rendering Name

OS:Space,
  {1c5dbbbd-6d8c-4170-a3dd-3f952c42a6e8}, !- Handle
  Story 1 West Perimeter Space,           !- Name
  ,                                       !- Space Type Name
  ,                                       !- Default Construction Set Name
  ,                                       !- Default Schedule Set Name
  -0,                                     !- Direction of Relative North {deg}
  0,                                      !- X Origin {m}
  0,                                      !- Y Origin {m}
  0,                                      !- Z Origin {m}
  {5c5c6e71-2011-465e-a8da-52ef2fe2b9e4}, !- Building Story Name
  {1e26f038-4d97-4df5-951e-47805902570a}; !- Thermal Zone Name

OS:Surface,
  {e095d1cf-eea9-463f-8f64-0d09de1a2d4a}, !- Handle
  Surface 1,                              !- Name
  Floor,                                  !- Surface Type
  ,                                       !- Construction Name
  {1c5dbbbd-6d8c-4170-a3dd-3f952c42a6e8}, !- Space Name
  Ground,                                 !- Outside Boundary Condition
  ,                                       !- Outside Boundary Condition Object
  NoSun,                                  !- Sun Exposure
  NoWind,                                 !- Wind Exposure
  ,                                       !- View Factor to Ground
  ,                                       !- Number of Vertices
  0, 0, 0,                                !- X,Y,Z Vertex 1 {m}
  0, 10.4880884817015, 0,                 !- X,Y,Z Vertex 2 {m}
  3, 7.48808848170152, 0,                 !- X,Y,Z Vertex 3 {m}
  3, 3, 0;                                !- X,Y,Z Vertex 4 {m}

OS:Surface,
  {6844d9bd-cd6e-4e8d-a747-e05f95b52715}, !- Handle
  Surface 2,                              !- Name
  Wall,                                   !- Surface Type
  ,                                       !- Construction Name
  {1c5dbbbd-6d8c-4170-a3dd-3f952c42a6e8}, !- Space Name
  Outdoors,                               !- Outside Boundary Condition
  ,                                       !- Outside Boundary Condition Object
  SunExposed,                             !- Sun Exposure
  WindExposed,                            !- Wind Exposure
  ,                                       !- View Factor to Ground
  ,                                       !- Number of Vertices
  0, 10.4880884817015, 4,                 !- X,Y,Z Vertex 1 {m}
  0, 10.4880884817015, 0,                 !- X,Y,Z Vertex 2 {m}
  0, 0, 0,                                !- X,Y,Z Vertex 3 {m}
  0, 0, 4;                                !- X,Y,Z Vertex 4 {m}

OS:Surface,
  {7df82899-0b54-4592-a76d-5003b733a6e3}, !- Handle
  Surface 3,                              !- Name
  Wall,                                   !- Surface Type
  ,                                       !- Construction Name
  {1c5dbbbd-6d8c-4170-a3dd-3f952c42a6e8}, !- Space Name
  Surface,                                !- Outside Boundary Condition
  {f8c66ca0-c2c8-454e-9320-c0e5cba32c8b}, !- Outside Boundary Condition Object
  NoSun,                                  !- Sun Exposure
  NoWind,                                 !- Wind Exposure
  ,                                       !- View Factor to Ground
  ,                                       !- Number of Vertices
  3, 7.48808848170152, 4,                 !- X,Y,Z Vertex 1 {m}
  3, 7.48808848170152, 0,                 !- X,Y,Z Vertex 2 {m}
  0, 10.4880884817015, 0,                 !- X,Y,Z Vertex 3 {m}
  0, 10.4880884817015, 4;                 !- X,Y,Z Vertex 4 {m}

OS:Surface,
  {44232ace-c372-43bc-b993-0e78fd1fef6c}, !- Handle
  Surface 4,                              !- Name
  Wall,                                   !- Surface Type
  ,                                       !- Construction Name
  {1c5dbbbd-6d8c-4170-a3dd-3f952c42a6e8}, !- Space Name
  Surface,                                !- Outside Boundary Condition
  {eaceb4c0-ec94-4f15-8ab5-ead705d55b1d}, !- Outside Boundary Condition Object
  NoSun,                                  !- Sun Exposure
  NoWind,                                 !- Wind Exposure
  ,                                       !- View Factor to Ground
  ,                                       !- Number of Vertices
  3, 3, 4,                                !- X,Y,Z Vertex 1 {m}
  3, 3, 0,                                !- X,Y,Z Vertex 2 {m}
  3, 7.48808848170152, 0,                 !- X,Y,Z Vertex 3 {m}
  3, 7.48808848170152, 4;                 !- X,Y,Z Vertex 4 {m}

OS:Surface,
  {fb3faeee-9f17-4313-a43f-b7e15be143a9}, !- Handle
  Surface 5,                              !- Name
  Wall,                                   !- Surface Type
  ,                                       !- Construction Name
  {1c5dbbbd-6d8c-4170-a3dd-3f952c42a6e8}, !- Space Name
  Surface,                                !- Outside Boundary Condition
  {16eda9b1-fcf9-4fd1-a978-13d8c2cdaf4b}, !- Outside Boundary Condition Object
  NoSun,                                  !- Sun Exposure
  NoWind,                                 !- Wind Exposure
  ,                                       !- View Factor to Ground
  ,                                       !- Number of Vertices
  0, 0, 4,                                !- X,Y,Z Vertex 1 {m}
  0, 0, 0,                                !- X,Y,Z Vertex 2 {m}
  3, 3, 0,                                !- X,Y,Z Vertex 3 {m}
  3, 3, 4;                                !- X,Y,Z Vertex 4 {m}

OS:Surface,
  {a89839fe-da17-4577-b821-f6da1eed92dc}, !- Handle
  Surface 6,                              !- Name
  RoofCeiling,                            !- Surface Type
  ,                                       !- Construction Name
  {1c5dbbbd-6d8c-4170-a3dd-3f952c42a6e8}, !- Space Name
  Outdoors,                               !- Outside Boundary Condition
  ,                                       !- Outside Boundary Condition Object
  SunExposed,                             !- Sun Exposure
  WindExposed,                            !- Wind Exposure
  ,                                       !- View Factor to Ground
  ,                                       !- Number of Vertices
  3, 3, 4,                                !- X,Y,Z Vertex 1 {m}
  3, 7.48808848170152, 4,                 !- X,Y,Z Vertex 2 {m}
  0, 10.4880884817015, 4,                 !- X,Y,Z Vertex 3 {m}
  0, 0, 4;                                !- X,Y,Z Vertex 4 {m}

OS:Space,
  {6f14fc1a-53f1-486e-992f-cf0202de8544}, !- Handle
  Story 1 North Perimeter Space,          !- Name
  ,                                       !- Space Type Name
  ,                                       !- Default Construction Set Name
  ,                                       !- Default Schedule Set Name
  -0,                                     !- Direction of Relative North {deg}
  3,                                      !- X Origin {m}
  7.48808848170152,                       !- Y Origin {m}
  0,                                      !- Z Origin {m}
  {5c5c6e71-2011-465e-a8da-52ef2fe2b9e4}, !- Building Story Name
  {6c10f8d7-c3e3-4e41-962c-870eb7dd3846}; !- Thermal Zone Name

OS:Surface,
  {83359bce-6ea9-43a7-ae87-92e6584139a8}, !- Handle
  Surface 7,                              !- Name
  Floor,                                  !- Surface Type
  ,                                       !- Construction Name
  {6f14fc1a-53f1-486e-992f-cf0202de8544}, !- Space Name
  Ground,                                 !- Outside Boundary Condition
  ,                                       !- Outside Boundary Condition Object
  NoSun,                                  !- Sun Exposure
  NoWind,                                 !- Wind Exposure
  ,                                       !- View Factor to Ground
  ,                                       !- Number of Vertices
  -3, 2.99999999999998, 0,                !- X,Y,Z Vertex 1 {m}
  7.4880884817015, 2.99999999999998, 0,   !- X,Y,Z Vertex 2 {m}
  4.48808848170152, 4.44089209850063e-15, 0, !- X,Y,Z Vertex 3 {m}
  0, 4.44089209850063e-15, 0;             !- X,Y,Z Vertex 4 {m}

OS:Surface,
  {ecf19d53-e38e-4934-a67f-8ab7d07de077}, !- Handle
  Surface 8,                              !- Name
  Wall,                                   !- Surface Type
  ,                                       !- Construction Name
  {6f14fc1a-53f1-486e-992f-cf0202de8544}, !- Space Name
  Outdoors,                               !- Outside Boundary Condition
  ,                                       !- Outside Boundary Condition Object
  SunExposed,                             !- Sun Exposure
  WindExposed,                            !- Wind Exposure
  ,                                       !- View Factor to Ground
  ,                                       !- Number of Vertices
  7.4880884817015, 2.99999999999998, 4,   !- X,Y,Z Vertex 1 {m}
  7.4880884817015, 2.99999999999998, 0,   !- X,Y,Z Vertex 2 {m}
  -3, 2.99999999999998, 0,                !- X,Y,Z Vertex 3 {m}
  -3, 2.99999999999998, 4;                !- X,Y,Z Vertex 4 {m}

OS:Surface,
  {4840bd20-0b2c-43f8-a65e-6348b9983679}, !- Handle
  Surface 9,                              !- Name
  Wall,                                   !- Surface Type
  ,                                       !- Construction Name
  {6f14fc1a-53f1-486e-992f-cf0202de8544}, !- Space Name
  Surface,                                !- Outside Boundary Condition
  {9ab5824c-c5e4-4e4e-8f70-b171eabc05cb}, !- Outside Boundary Condition Object
  NoSun,                                  !- Sun Exposure
  NoWind,                                 !- Wind Exposure
  ,                                       !- View Factor to Ground
  ,                                       !- Number of Vertices
  4.48808848170152, 4.44089209850063e-15, 4, !- X,Y,Z Vertex 1 {m}
  4.48808848170152, 4.44089209850063e-15, 0, !- X,Y,Z Vertex 2 {m}
  7.4880884817015, 2.99999999999998, 0,   !- X,Y,Z Vertex 3 {m}
  7.4880884817015, 2.99999999999998, 4;   !- X,Y,Z Vertex 4 {m}

OS:Surface,
  {510b32a5-5874-45f8-b5a5-7964a1fbec33}, !- Handle
  Surface 10,                             !- Name
  Wall,                                   !- Surface Type
  ,                                       !- Construction Name
  {6f14fc1a-53f1-486e-992f-cf0202de8544}, !- Space Name
  Surface,                                !- Outside Boundary Condition
  {023e6e69-25e0-46f5-988b-8f817f73a124}, !- Outside Boundary Condition Object
  NoSun,                                  !- Sun Exposure
  NoWind,                                 !- Wind Exposure
  ,                                       !- View Factor to Ground
  ,                                       !- Number of Vertices
  0, 4.44089209850063e-15, 4,             !- X,Y,Z Vertex 1 {m}
  0, 4.44089209850063e-15, 0,             !- X,Y,Z Vertex 2 {m}
  4.48808848170152, 4.44089209850063e-15, 0, !- X,Y,Z Vertex 3 {m}
  4.48808848170152, 4.44089209850063e-15, 4; !- X,Y,Z Vertex 4 {m}

OS:Surface,
  {f8c66ca0-c2c8-454e-9320-c0e5cba32c8b}, !- Handle
  Surface 11,                             !- Name
  Wall,                                   !- Surface Type
  ,                                       !- Construction Name
  {6f14fc1a-53f1-486e-992f-cf0202de8544}, !- Space Name
  Surface,                                !- Outside Boundary Condition
  {7df82899-0b54-4592-a76d-5003b733a6e3}, !- Outside Boundary Condition Object
  NoSun,                                  !- Sun Exposure
  NoWind,                                 !- Wind Exposure
  ,                                       !- View Factor to Ground
  ,                                       !- Number of Vertices
  -3, 2.99999999999998, 4,                !- X,Y,Z Vertex 1 {m}
  -3, 2.99999999999998, 0,                !- X,Y,Z Vertex 2 {m}
  0, 4.44089209850063e-15, 0,             !- X,Y,Z Vertex 3 {m}
  0, 4.44089209850063e-15, 4;             !- X,Y,Z Vertex 4 {m}

OS:Surface,
  {a8d7d53a-c371-459c-88dd-7b373b3b9196}, !- Handle
  Surface 12,                             !- Name
  RoofCeiling,                            !- Surface Type
  ,                                       !- Construction Name
  {6f14fc1a-53f1-486e-992f-cf0202de8544}, !- Space Name
  Outdoors,                               !- Outside Boundary Condition
  ,                                       !- Outside Boundary Condition Object
  SunExposed,                             !- Sun Exposure
  WindExposed,                            !- Wind Exposure
  ,                                       !- View Factor to Ground
  ,                                       !- Number of Vertices
  0, 4.44089209850063e-15, 4,             !- X,Y,Z Vertex 1 {m}
  4.48808848170152, 4.44089209850063e-15, 4, !- X,Y,Z Vertex 2 {m}
  7.4880884817015, 2.99999999999998, 4,   !- X,Y,Z Vertex 3 {m}
  -3, 2.99999999999998, 4;                !- X,Y,Z Vertex 4 {m}

OS:Space,
  {2941e28c-15f2-476c-8de4-2d7cee28a91f}, !- Handle
  Story 1 East Perimeter Space,           !- Name
  ,                                       !- Space Type Name
  ,                                       !- Default Construction Set Name
  ,                                       !- Default Schedule Set Name
  -0,                                     !- Direction of Relative North {deg}
  7.48808848170152,                       !- X Origin {m}
  3,                                      !- Y Origin {m}
  0,                                      !- Z Origin {m}
  {5c5c6e71-2011-465e-a8da-52ef2fe2b9e4}, !- Building Story Name
  {dc890c97-d8cb-4b40-b398-57e0607ffc3e}; !- Thermal Zone Name

OS:Surface,
  {53ed87d5-7045-4b3e-a8db-2849232c080a}, !- Handle
  Surface 13,                             !- Name
  Floor,                                  !- Surface Type
  ,                                       !- Construction Name
  {2941e28c-15f2-476c-8de4-2d7cee28a91f}, !- Space Name
  Ground,                                 !- Outside Boundary Condition
  ,                                       !- Outside Boundary Condition Object
  NoSun,                                  !- Sun Exposure
  NoWind,                                 !- Wind Exposure
  ,                                       !- View Factor to Ground
  ,                                       !- Number of Vertices
  2.99999999999998, 7.4880884817015, 0,   !- X,Y,Z Vertex 1 {m}
  2.99999999999998, -3, 0,                !- X,Y,Z Vertex 2 {m}
  4.44089209850063e-15, 0, 0,             !- X,Y,Z Vertex 3 {m}
  4.44089209850063e-15, 4.48808848170152, 0; !- X,Y,Z Vertex 4 {m}

OS:Surface,
  {69dbfcfa-fb99-4849-84d2-d4eda4121028}, !- Handle
  Surface 14,                             !- Name
  Wall,                                   !- Surface Type
  ,                                       !- Construction Name
  {2941e28c-15f2-476c-8de4-2d7cee28a91f}, !- Space Name
  Outdoors,                               !- Outside Boundary Condition
  ,                                       !- Outside Boundary Condition Object
  SunExposed,                             !- Sun Exposure
  WindExposed,                            !- Wind Exposure
  ,                                       !- View Factor to Ground
  ,                                       !- Number of Vertices
  2.99999999999998, -3, 4,                !- X,Y,Z Vertex 1 {m}
  2.99999999999998, -3, 0,                !- X,Y,Z Vertex 2 {m}
  2.99999999999998, 7.4880884817015, 0,   !- X,Y,Z Vertex 3 {m}
  2.99999999999998, 7.4880884817015, 4;   !- X,Y,Z Vertex 4 {m}

OS:Surface,
  {b1a7ff51-7a7c-4c69-9288-9712eeb3f308}, !- Handle
  Surface 15,                             !- Name
  Wall,                                   !- Surface Type
  ,                                       !- Construction Name
  {2941e28c-15f2-476c-8de4-2d7cee28a91f}, !- Space Name
  Surface,                                !- Outside Boundary Condition
  {0983ba8e-6a4a-4801-b37c-c6143ab8ed2b}, !- Outside Boundary Condition Object
  NoSun,                                  !- Sun Exposure
  NoWind,                                 !- Wind Exposure
  ,                                       !- View Factor to Ground
  ,                                       !- Number of Vertices
  4.44089209850063e-15, 0, 4,             !- X,Y,Z Vertex 1 {m}
  4.44089209850063e-15, 0, 0,             !- X,Y,Z Vertex 2 {m}
  2.99999999999998, -3, 0,                !- X,Y,Z Vertex 3 {m}
  2.99999999999998, -3, 4;                !- X,Y,Z Vertex 4 {m}

OS:Surface,
  {2b79d236-f64f-4769-b106-1ead1418e159}, !- Handle
  Surface 16,                             !- Name
  Wall,                                   !- Surface Type
  ,                                       !- Construction Name
  {2941e28c-15f2-476c-8de4-2d7cee28a91f}, !- Space Name
  Surface,                                !- Outside Boundary Condition
  {9bbc7984-a85e-4426-9cfc-7d925b170d16}, !- Outside Boundary Condition Object
  NoSun,                                  !- Sun Exposure
  NoWind,                                 !- Wind Exposure
  ,                                       !- View Factor to Ground
  ,                                       !- Number of Vertices
  4.44089209850063e-15, 4.48808848170152, 4, !- X,Y,Z Vertex 1 {m}
  4.44089209850063e-15, 4.48808848170152, 0, !- X,Y,Z Vertex 2 {m}
  4.44089209850063e-15, 0, 0,             !- X,Y,Z Vertex 3 {m}
  4.44089209850063e-15, 0, 4;             !- X,Y,Z Vertex 4 {m}

OS:Surface,
  {9ab5824c-c5e4-4e4e-8f70-b171eabc05cb}, !- Handle
  Surface 17,                             !- Name
  Wall,                                   !- Surface Type
  ,                                       !- Construction Name
  {2941e28c-15f2-476c-8de4-2d7cee28a91f}, !- Space Name
  Surface,                                !- Outside Boundary Condition
  {4840bd20-0b2c-43f8-a65e-6348b9983679}, !- Outside Boundary Condition Object
  NoSun,                                  !- Sun Exposure
  NoWind,                                 !- Wind Exposure
  ,                                       !- View Factor to Ground
  ,                                       !- Number of Vertices
  2.99999999999998, 7.4880884817015, 4,   !- X,Y,Z Vertex 1 {m}
  2.99999999999998, 7.4880884817015, 0,   !- X,Y,Z Vertex 2 {m}
  4.44089209850063e-15, 4.48808848170152, 0, !- X,Y,Z Vertex 3 {m}
  4.44089209850063e-15, 4.48808848170152, 4; !- X,Y,Z Vertex 4 {m}

OS:Surface,
  {88b044e5-b892-4e2c-8684-40ccd58bf5ac}, !- Handle
  Surface 18,                             !- Name
  RoofCeiling,                            !- Surface Type
  ,                                       !- Construction Name
  {2941e28c-15f2-476c-8de4-2d7cee28a91f}, !- Space Name
  Outdoors,                               !- Outside Boundary Condition
  ,                                       !- Outside Boundary Condition Object
  SunExposed,                             !- Sun Exposure
  WindExposed,                            !- Wind Exposure
  ,                                       !- View Factor to Ground
  ,                                       !- Number of Vertices
  4.44089209850063e-15, 4.48808848170152, 4, !- X,Y,Z Vertex 1 {m}
  4.44089209850063e-15, 0, 4,             !- X,Y,Z Vertex 2 {m}
  2.99999999999998, -3, 4,                !- X,Y,Z Vertex 3 {m}
  2.99999999999998, 7.4880884817015, 4;   !- X,Y,Z Vertex 4 {m}

OS:Space,
  {ec4a0004-e1ef-44a6-8a60-6dac9d3d7702}, !- Handle
  Story 1 South Perimeter Space,          !- Name
  ,                                       !- Space Type Name
  ,                                       !- Default Construction Set Name
  ,                                       !- Default Schedule Set Name
  -0,                                     !- Direction of Relative North {deg}
  0,                                      !- X Origin {m}
  0,                                      !- Y Origin {m}
  0,                                      !- Z Origin {m}
  {5c5c6e71-2011-465e-a8da-52ef2fe2b9e4}, !- Building Story Name
  {926d669a-902b-45b8-a9e8-577a7195b87e}; !- Thermal Zone Name

OS:Surface,
  {70f725cb-ddf7-4897-a4d5-9ccdde795669}, !- Handle
  Surface 19,                             !- Name
  Floor,                                  !- Surface Type
  ,                                       !- Construction Name
  {ec4a0004-e1ef-44a6-8a60-6dac9d3d7702}, !- Space Name
  Ground,                                 !- Outside Boundary Condition
  ,                                       !- Outside Boundary Condition Object
  NoSun,                                  !- Sun Exposure
  NoWind,                                 !- Wind Exposure
  ,                                       !- View Factor to Ground
  ,                                       !- Number of Vertices
  10.4880884817015, 0, 0,                 !- X,Y,Z Vertex 1 {m}
  0, 0, 0,                                !- X,Y,Z Vertex 2 {m}
  3, 3, 0,                                !- X,Y,Z Vertex 3 {m}
  7.48808848170152, 3, 0;                 !- X,Y,Z Vertex 4 {m}

OS:Surface,
  {7886cff1-c731-441b-96db-9b07dc584041}, !- Handle
  Surface 20,                             !- Name
  Wall,                                   !- Surface Type
  ,                                       !- Construction Name
  {ec4a0004-e1ef-44a6-8a60-6dac9d3d7702}, !- Space Name
  Outdoors,                               !- Outside Boundary Condition
  ,                                       !- Outside Boundary Condition Object
  SunExposed,                             !- Sun Exposure
  WindExposed,                            !- Wind Exposure
  ,                                       !- View Factor to Ground
  ,                                       !- Number of Vertices
  0, 0, 4,                                !- X,Y,Z Vertex 1 {m}
  0, 0, 0,                                !- X,Y,Z Vertex 2 {m}
  10.4880884817015, 0, 0,                 !- X,Y,Z Vertex 3 {m}
  10.4880884817015, 0, 4;                 !- X,Y,Z Vertex 4 {m}

OS:Surface,
  {16eda9b1-fcf9-4fd1-a978-13d8c2cdaf4b}, !- Handle
  Surface 21,                             !- Name
  Wall,                                   !- Surface Type
  ,                                       !- Construction Name
  {ec4a0004-e1ef-44a6-8a60-6dac9d3d7702}, !- Space Name
  Surface,                                !- Outside Boundary Condition
  {fb3faeee-9f17-4313-a43f-b7e15be143a9}, !- Outside Boundary Condition Object
  NoSun,                                  !- Sun Exposure
  NoWind,                                 !- Wind Exposure
  ,                                       !- View Factor to Ground
  ,                                       !- Number of Vertices
  3, 3, 4,                                !- X,Y,Z Vertex 1 {m}
  3, 3, 0,                                !- X,Y,Z Vertex 2 {m}
  0, 0, 0,                                !- X,Y,Z Vertex 3 {m}
  0, 0, 4;                                !- X,Y,Z Vertex 4 {m}

OS:Surface,
  {f438fc28-69da-432f-9b39-3ad3f48d657e}, !- Handle
  Surface 22,                             !- Name
  Wall,                                   !- Surface Type
  ,                                       !- Construction Name
  {ec4a0004-e1ef-44a6-8a60-6dac9d3d7702}, !- Space Name
  Surface,                                !- Outside Boundary Condition
  {9515e318-81fe-4e47-849c-1b6c4b658c9b}, !- Outside Boundary Condition Object
  NoSun,                                  !- Sun Exposure
  NoWind,                                 !- Wind Exposure
  ,                                       !- View Factor to Ground
  ,                                       !- Number of Vertices
  7.48808848170152, 3, 4,                 !- X,Y,Z Vertex 1 {m}
  7.48808848170152, 3, 0,                 !- X,Y,Z Vertex 2 {m}
  3, 3, 0,                                !- X,Y,Z Vertex 3 {m}
  3, 3, 4;                                !- X,Y,Z Vertex 4 {m}

OS:Surface,
  {0983ba8e-6a4a-4801-b37c-c6143ab8ed2b}, !- Handle
  Surface 23,                             !- Name
  Wall,                                   !- Surface Type
  ,                                       !- Construction Name
  {ec4a0004-e1ef-44a6-8a60-6dac9d3d7702}, !- Space Name
  Surface,                                !- Outside Boundary Condition
  {b1a7ff51-7a7c-4c69-9288-9712eeb3f308}, !- Outside Boundary Condition Object
  NoSun,                                  !- Sun Exposure
  NoWind,                                 !- Wind Exposure
  ,                                       !- View Factor to Ground
  ,                                       !- Number of Vertices
  10.4880884817015, 0, 4,                 !- X,Y,Z Vertex 1 {m}
  10.4880884817015, 0, 0,                 !- X,Y,Z Vertex 2 {m}
  7.48808848170152, 3, 0,                 !- X,Y,Z Vertex 3 {m}
  7.48808848170152, 3, 4;                 !- X,Y,Z Vertex 4 {m}

OS:Surface,
  {c3ed69aa-5a7f-434c-b5e6-ac99dcc8af66}, !- Handle
  Surface 24,                             !- Name
  RoofCeiling,                            !- Surface Type
  ,                                       !- Construction Name
  {ec4a0004-e1ef-44a6-8a60-6dac9d3d7702}, !- Space Name
  Outdoors,                               !- Outside Boundary Condition
  ,                                       !- Outside Boundary Condition Object
  SunExposed,                             !- Sun Exposure
  WindExposed,                            !- Wind Exposure
  ,                                       !- View Factor to Ground
  ,                                       !- Number of Vertices
  7.48808848170152, 3, 4,                 !- X,Y,Z Vertex 1 {m}
  3, 3, 4,                                !- X,Y,Z Vertex 2 {m}
  0, 0, 4,                                !- X,Y,Z Vertex 3 {m}
  10.4880884817015, 0, 4;                 !- X,Y,Z Vertex 4 {m}

OS:Space,
  {ad534622-f2b3-470a-8602-d23f9882aaf9}, !- Handle
  Story 1 Core Space,                     !- Name
  ,                                       !- Space Type Name
  ,                                       !- Default Construction Set Name
  ,                                       !- Default Schedule Set Name
  -0,                                     !- Direction of Relative North {deg}
  3,                                      !- X Origin {m}
  3,                                      !- Y Origin {m}
  0,                                      !- Z Origin {m}
  {5c5c6e71-2011-465e-a8da-52ef2fe2b9e4}, !- Building Story Name
  {7b3d7c4c-7946-4e03-acaf-fbde2b6024df}; !- Thermal Zone Name

OS:Surface,
  {6f2167a2-68d1-4ff2-a556-0e025a1b755d}, !- Handle
  Surface 25,                             !- Name
  Floor,                                  !- Surface Type
  ,                                       !- Construction Name
  {ad534622-f2b3-470a-8602-d23f9882aaf9}, !- Space Name
  Ground,                                 !- Outside Boundary Condition
  ,                                       !- Outside Boundary Condition Object
  NoSun,                                  !- Sun Exposure
  NoWind,                                 !- Wind Exposure
  ,                                       !- View Factor to Ground
  ,                                       !- Number of Vertices
  0, 0, 0,                                !- X,Y,Z Vertex 1 {m}
  0, 4.48808848170152, 0,                 !- X,Y,Z Vertex 2 {m}
  4.48808848170152, 4.48808848170152, 0,  !- X,Y,Z Vertex 3 {m}
  4.48808848170152, 0, 0;                 !- X,Y,Z Vertex 4 {m}

OS:Surface,
  {eaceb4c0-ec94-4f15-8ab5-ead705d55b1d}, !- Handle
  Surface 26,                             !- Name
  Wall,                                   !- Surface Type
  ,                                       !- Construction Name
  {ad534622-f2b3-470a-8602-d23f9882aaf9}, !- Space Name
  Surface,                                !- Outside Boundary Condition
  {44232ace-c372-43bc-b993-0e78fd1fef6c}, !- Outside Boundary Condition Object
  NoSun,                                  !- Sun Exposure
  NoWind,                                 !- Wind Exposure
  ,                                       !- View Factor to Ground
  ,                                       !- Number of Vertices
  0, 4.48808848170152, 4,                 !- X,Y,Z Vertex 1 {m}
  0, 4.48808848170152, 0,                 !- X,Y,Z Vertex 2 {m}
  0, 0, 0,                                !- X,Y,Z Vertex 3 {m}
  0, 0, 4;                                !- X,Y,Z Vertex 4 {m}

OS:Surface,
  {023e6e69-25e0-46f5-988b-8f817f73a124}, !- Handle
  Surface 27,                             !- Name
  Wall,                                   !- Surface Type
  ,                                       !- Construction Name
  {ad534622-f2b3-470a-8602-d23f9882aaf9}, !- Space Name
  Surface,                                !- Outside Boundary Condition
  {510b32a5-5874-45f8-b5a5-7964a1fbec33}, !- Outside Boundary Condition Object
  NoSun,                                  !- Sun Exposure
  NoWind,                                 !- Wind Exposure
  ,                                       !- View Factor to Ground
  ,                                       !- Number of Vertices
  4.48808848170152, 4.48808848170152, 4,  !- X,Y,Z Vertex 1 {m}
  4.48808848170152, 4.48808848170152, 0,  !- X,Y,Z Vertex 2 {m}
  0, 4.48808848170152, 0,                 !- X,Y,Z Vertex 3 {m}
  0, 4.48808848170152, 4;                 !- X,Y,Z Vertex 4 {m}

OS:Surface,
  {9bbc7984-a85e-4426-9cfc-7d925b170d16}, !- Handle
  Surface 28,                             !- Name
  Wall,                                   !- Surface Type
  ,                                       !- Construction Name