
OS:Version,
  {384223ea-583c-4482-b400-8842194b81f0}, !- Handle
  0.10.0;                                 !- Version Identifier

OS:BuildingStory,
  {90e1d1c7-2d4c-4d75-80e8-8b5d79dc8fe2}, !- Handle
  Story 1,                                !- Name
  0,                                      !- Nominal Z Coordinate {m}
  4,                                      !- Nominal Floor to Floor Height {m}
  ,                                       !- Default Construction Set Name
  ,                                       !- Default Schedule Set Name
  ;                                       !- Group Rendering Name

OS:Space,
  {dc3b8787-699c-4ae8-9b01-66046b96b3be}, !- Handle
  Story 1 West Perimeter Space,           !- Name
  ,                                       !- Space Type Name
  ,                                       !- Default Construction Set Name
  ,                                       !- Default Schedule Set Name
  -0,                                     !- Direction of Relative North {deg}
  0,                                      !- X Origin {m}
  0,                                      !- Y Origin {m}
  0,                                      !- Z Origin {m}
  {90e1d1c7-2d4c-4d75-80e8-8b5d79dc8fe2}, !- Building Story Name
  {7347488c-cd01-41ca-919d-fa2c76d96c65}; !- Thermal Zone Name

OS:Surface,
  {a6249e66-0c3b-48fa-84fd-a764242ddfca}, !- Handle
  Surface 1,                              !- Name
  Floor,                                  !- Surface Type
  ,                                       !- Construction Name
  {dc3b8787-699c-4ae8-9b01-66046b96b3be}, !- Space Name
  Ground,                                 !- Outside Boundary Condition
  ,                                       !- Outside Boundary Condition Object
  NoSun,                                  !- Sun Exposure
  NoWind,                                 !- Wind Exposure
  ,                                       !- View Factor to Ground
  ,                                       !- Number of Vertices
  0, 0, 0,                                !- X,Y,Z Vertex 1 {m}
  0, 25, 0,                               !- X,Y,Z Vertex 2 {m}
  3, 22, 0,                               !- X,Y,Z Vertex 3 {m}
  3, 3, 0;                                !- X,Y,Z Vertex 4 {m}

OS:Surface,
  {e0d1a9c9-1f13-45b1-8160-a77deff6f9c4}, !- Handle
  Surface 2,                              !- Name
  Wall,                                   !- Surface Type
  ,                                       !- Construction Name
  {dc3b8787-699c-4ae8-9b01-66046b96b3be}, !- Space Name
  Outdoors,                               !- Outside Boundary Condition
  ,                                       !- Outside Boundary Condition Object
  SunExposed,                             !- Sun Exposure
  WindExposed,                            !- Wind Exposure
  ,                                       !- View Factor to Ground
  ,                                       !- Number of Vertices
  0, 25, 4,                               !- X,Y,Z Vertex 1 {m}
  0, 25, 0,                               !- X,Y,Z Vertex 2 {m}
  0, 0, 0,                                !- X,Y,Z Vertex 3 {m}
  0, 0, 4;                                !- X,Y,Z Vertex 4 {m}

OS:Surface,
  {20d06f7a-7cce-417f-8bbe-d381365483e6}, !- Handle
  Surface 3,                              !- Name
  Wall,                                   !- Surface Type
  ,                                       !- Construction Name
  {dc3b8787-699c-4ae8-9b01-66046b96b3be}, !- Space Name
  Surface,                                !- Outside Boundary Condition
  {4f79b068-3184-407d-b8f0-5ba33e5a413e}, !- Outside Boundary Condition Object
  NoSun,                                  !- Sun Exposure
  NoWind,                                 !- Wind Exposure
  ,                                       !- View Factor to Ground
  ,                                       !- Number of Vertices
  3, 22, 4,                               !- X,Y,Z Vertex 1 {m}
  3, 22, 0,                               !- X,Y,Z Vertex 2 {m}
  0, 25, 0,                               !- X,Y,Z Vertex 3 {m}
  0, 25, 4;                               !- X,Y,Z Vertex 4 {m}

OS:Surface,
  {e2a2f4c6-72d5-4d04-8947-e569fa6f0abf}, !- Handle
  Surface 4,                              !- Name
  Wall,                                   !- Surface Type
  ,                                       !- Construction Name
  {dc3b8787-699c-4ae8-9b01-66046b96b3be}, !- Space Name
  Surface,                                !- Outside Boundary Condition
  {cc2fdeaf-4f80-4c94-a00b-e2dbadac3e0f}, !- Outside Boundary Condition Object
  NoSun,                                  !- Sun Exposure
  NoWind,                                 !- Wind Exposure
  ,                                       !- View Factor to Ground
  ,                                       !- Number of Vertices
  3, 3, 4,                                !- X,Y,Z Vertex 1 {m}
  3, 3, 0,                                !- X,Y,Z Vertex 2 {m}
  3, 22, 0,                               !- X,Y,Z Vertex 3 {m}
  3, 22, 4;                               !- X,Y,Z Vertex 4 {m}

OS:Surface,
  {574b28ac-5078-4161-abbe-8e3c55507394}, !- Handle
  Surface 5,                              !- Name
  Wall,                                   !- Surface Type
  ,                                       !- Construction Name
  {dc3b8787-699c-4ae8-9b01-66046b96b3be}, !- Space Name
  Surface,                                !- Outside Boundary Condition
  {2ab23c0b-66f7-4a7b-bc36-5837dad00128}, !- Outside Boundary Condition Object
  NoSun,                                  !- Sun Exposure
  NoWind,                                 !- Wind Exposure
  ,                                       !- View Factor to Ground
  ,                                       !- Number of Vertices
  0, 0, 4,                                !- X,Y,Z Vertex 1 {m}
  0, 0, 0,                                !- X,Y,Z Vertex 2 {m}
  3, 3, 0,                                !- X,Y,Z Vertex 3 {m}
  3, 3, 4;                                !- X,Y,Z Vertex 4 {m}

OS:Surface,
  {7738fb49-ace3-4a40-865d-d96abb740715}, !- Handle
  Surface 6,                              !- Name
  RoofCeiling,                            !- Surface Type
  ,                                       !- Construction Name
  {dc3b8787-699c-4ae8-9b01-66046b96b3be}, !- Space Name
  Surface,                                !- Outside Boundary Condition
  {e9b348c1-b1f1-4124-9e4d-3abaa4bce366}, !- Outside Boundary Condition Object
  NoSun,                                  !- Sun Exposure
  NoWind,                                 !- Wind Exposure
  ,                                       !- View Factor to Ground
  ,                                       !- Number of Vertices
  3, 3, 4,                                !- X,Y,Z Vertex 1 {m}
  3, 22, 4,                               !- X,Y,Z Vertex 2 {m}
  0, 25, 4,                               !- X,Y,Z Vertex 3 {m}
  0, 0, 4;                                !- X,Y,Z Vertex 4 {m}

OS:Space,
  {678e729e-99c8-4a19-a666-54344f709ee3}, !- Handle
  Story 1 North Perimeter Space,          !- Name
  ,                                       !- Space Type Name
  ,                                       !- Default Construction Set Name
  ,                                       !- Default Schedule Set Name
  -0,                                     !- Direction of Relative North {deg}
  3,                                      !- X Origin {m}
  22,                                     !- Y Origin {m}
  0,                                      !- Z Origin {m}
  {90e1d1c7-2d4c-4d75-80e8-8b5d79dc8fe2}, !- Building Story Name
  {c9fdcb52-cd39-402e-975d-5b9bbde06c16}; !- Thermal Zone Name

OS:Surface,
  {7c85f96e-8ffb-45d4-bc9f-a37a63bc09df}, !- Handle
  Surface 7,                              !- Name
  Floor,                                  !- Surface Type
  ,                                       !- Construction Name
  {678e729e-99c8-4a19-a666-54344f709ee3}, !- Space Name
  Ground,                                 !- Outside Boundary Condition
  ,                                       !- Outside Boundary Condition Object
  NoSun,                                  !- Sun Exposure
  NoWind,                                 !- Wind Exposure
  ,                                       !- View Factor to Ground
  ,                                       !- Number of Vertices
  -3, 3, 0,                               !- X,Y,Z Vertex 1 {m}
  22, 3, 0,                               !- X,Y,Z Vertex 2 {m}
  19, 0, 0,                               !- X,Y,Z Vertex 3 {m}
  0, 0, 0;                                !- X,Y,Z Vertex 4 {m}

OS:Surface,
  {da1d25aa-2f1f-4ab9-a399-7c6d141379a5}, !- Handle
  Surface 8,                              !- Name
  Wall,                                   !- Surface Type
  ,                                       !- Construction Name
  {678e729e-99c8-4a19-a666-54344f709ee3}, !- Space Name
  Outdoors,                               !- Outside Boundary Condition
  ,                                       !- Outside Boundary Condition Object
  SunExposed,                             !- Sun Exposure
  WindExposed,                            !- Wind Exposure
  ,                                       !- View Factor to Ground
  ,                                       !- Number of Vertices
  22, 3, 4,                               !- X,Y,Z Vertex 1 {m}
  22, 3, 0,                               !- X,Y,Z Vertex 2 {m}
  -3, 3, 0,                               !- X,Y,Z Vertex 3 {m}
  -3, 3, 4;                               !- X,Y,Z Vertex 4 {m}

OS:Surface,
  {fccfd9d1-9de8-4f1b-83ba-c9ccc5f0c44c}, !- Handle
  Surface 9,                              !- Name
  Wall,                                   !- Surface Type
  ,                                       !- Construction Name
  {678e729e-99c8-4a19-a666-54344f709ee3}, !- Space Name
  Surface,                                !- Outside Boundary Condition
  {a13e8258-34ac-4469-a37d-194db8590d87}, !- Outside Boundary Condition Object
  NoSun,                                  !- Sun Exposure
  NoWind,                                 !- Wind Exposure
  ,                                       !- View Factor to Ground
  ,                                       !- Number of Vertices
  19, 0, 4,                               !- X,Y,Z Vertex 1 {m}
  19, 0, 0,                               !- X,Y,Z Vertex 2 {m}
  22, 3, 0,                               !- X,Y,Z Vertex 3 {m}
  22, 3, 4;                               !- X,Y,Z Vertex 4 {m}

OS:Surface,
  {4bae495b-904c-4abd-b600-d7152b80a0df}, !- Handle
  Surface 10,                             !- Name
  Wall,                                   !- Surface Type
  ,                                       !- Construction Name
  {678e729e-99c8-4a19-a666-54344f709ee3}, !- Space Name
  Surface,                                !- Outside Boundary Condition
  {24e3826b-4674-4b18-8f44-8762881faa46}, !- Outside Boundary Condition Object
  NoSun,                                  !- Sun Exposure
  NoWind,                                 !- Wind Exposure
  ,                                       !- View Factor to Ground
  ,                                       !- Number of Vertices
  0, 0, 4,                                !- X,Y,Z Vertex 1 {m}
  0, 0, 0,                                !- X,Y,Z Vertex 2 {m}
  19, 0, 0,                               !- X,Y,Z Vertex 3 {m}
  19, 0, 4;                               !- X,Y,Z Vertex 4 {m}

OS:Surface,
  {4f79b068-3184-407d-b8f0-5ba33e5a413e}, !- Handle
  Surface 11,                             !- Name
  Wall,                                   !- Surface Type
  ,                                       !- Construction Name
  {678e729e-99c8-4a19-a666-54344f709ee3}, !- Space Name
  Surface,                                !- Outside Boundary Condition
  {20d06f7a-7cce-417f-8bbe-d381365483e6}, !- Outside Boundary Condition Object
  NoSun,                                  !- Sun Exposure
  NoWind,                                 !- Wind Exposure
  ,                                       !- View Factor to Ground
  ,                                       !- Number of Vertices
  -3, 3, 4,                               !- X,Y,Z Vertex 1 {m}
  -3, 3, 0,                               !- X,Y,Z Vertex 2 {m}
  0, 0, 0,                                !- X,Y,Z Vertex 3 {m}
  0, 0, 4;                                !- X,Y,Z Vertex 4 {m}

OS:Surface,
  {e6bb8efc-b50c-4c9d-ace3-a2f44c69b61c}, !- Handle
  Surface 12,                             !- Name
  RoofCeiling,                            !- Surface Type
  ,                                       !- Construction Name
  {678e729e-99c8-4a19-a666-54344f709ee3}, !- Space Name
  Surface,                                !- Outside Boundary Condition
  {fbc597f9-0805-46da-8c45-8a7799c9ff8d}, !- Outside Boundary Condition Object
  NoSun,                                  !- Sun Exposure
  NoWind,                                 !- Wind Exposure
  ,                                       !- View Factor to Ground
  ,                                       !- Number of Vertices
  0, 0, 4,                                !- X,Y,Z Vertex 1 {m}
  19, 0, 4,                               !- X,Y,Z Vertex 2 {m}
  22, 3, 4,                               !- X,Y,Z Vertex 3 {m}
  -3, 3, 4;                               !- X,Y,Z Vertex 4 {m}

OS:Space,
  {6cf3215e-0d41-405a-a701-7dd964b4b9d8}, !- Handle
  Story 1 East Perimeter Space,           !- Name
  ,                                       !- Space Type Name
  ,                                       !- Default Construction Set Name
  ,                                       !- Default Schedule Set Name
  -0,                                     !- Direction of Relative North {deg}
  22,                                     !- X Origin {m}
  3,                                      !- Y Origin {m}
  0,                                      !- Z Origin {m}
  {90e1d1c7-2d4c-4d75-80e8-8b5d79dc8fe2}, !- Building Story Name
  {9e556e6b-1398-49ab-9065-6b12b2e88aee}; !- Thermal Zone Name

OS:Surface,
  {0a1730eb-10ef-4bcd-9912-58ab2ea7def3}, !- Handle
  Surface 13,                             !- Name
  Floor,                                  !- Surface Type
  ,                                       !- Construction Name
  {6cf3215e-0d41-405a-a701-7dd964b4b9d8}, !- Space Name
  Ground,                                 !- Outside Boundary Condition
  ,                                       !- Outside Boundary Condition Object
  NoSun,                                  !- Sun Exposure
  NoWind,                                 !- Wind Exposure
  ,                                       !- View Factor to Ground
  ,                                       !- Number of Vertices
  3, 22, 0,                               !- X,Y,Z Vertex 1 {m}
  3, -3, 0,                               !- X,Y,Z Vertex 2 {m}
  0, 0, 0,                                !- X,Y,Z Vertex 3 {m}
  0, 19, 0;                               !- X,Y,Z Vertex 4 {m}

OS:Surface,
  {97c704b9-1f23-4841-8937-a2afde84d656}, !- Handle
  Surface 14,                             !- Name
  Wall,                                   !- Surface Type
  ,                                       !- Construction Name
  {6cf3215e-0d41-405a-a701-7dd964b4b9d8}, !- Space Name
  Outdoors,                               !- Outside Boundary Condition
  ,                                       !- Outside Boundary Condition Object
  SunExposed,                             !- Sun Exposure
  WindExposed,                            !- Wind Exposure
  ,                                       !- View Factor to Ground
  ,                                       !- Number of Vertices
  3, -3, 4,                               !- X,Y,Z Vertex 1 {m}
  3, -3, 0,                               !- X,Y,Z Vertex 2 {m}
  3, 22, 0,                               !- X,Y,Z Vertex 3 {m}
  3, 22, 4;                               !- X,Y,Z Vertex 4 {m}

OS:Surface,
  {79af97a8-0e2b-44a6-a0ee-edad34b545d9}, !- Handle
  Surface 15,                             !- Name
  Wall,                                   !- Surface Type
  ,                                       !- Construction Name
  {6cf3215e-0d41-405a-a701-7dd964b4b9d8}, !- Space Name
  Surface,                                !- Outside Boundary Condition
  {814afb4e-cd8d-4381-ae9e-ba8a886a1087}, !- Outside Boundary Condition Object
  NoSun,                                  !- Sun Exposure
  NoWind,                                 !- Wind Exposure
  ,                                       !- View Factor to Ground
  ,                                       !- Number of Vertices
  0, 0, 4,                                !- X,Y,Z Vertex 1 {m}
  0, 0, 0,                                !- X,Y,Z Vertex 2 {m}
  3, -3, 0,                               !- X,Y,Z Vertex 3 {m}
  3, -3, 4;                               !- X,Y,Z Vertex 4 {m}

OS:Surface,
  {ec884ab8-2bb1-460a-a275-394dc7f86271}, !- Handle
  Surface 16,                             !- Name
  Wall,                                   !- Surface Type
  ,                                       !- Construction Name
  {6cf3215e-0d41-405a-a701-7dd964b4b9d8}, !- Space Name
  Surface,                                !- Outside Boundary Condition
  {0cc0e8e8-d2a1-4318-b906-c7c2e0a7b061}, !- Outside Boundary Condition Object
  NoSun,                                  !- Sun Exposure
  NoWind,                                 !- Wind Exposure
  ,                                       !- View Factor to Ground
  ,                                       !- Number of Vertices
  0, 19, 4,                               !- X,Y,Z Vertex 1 {m}
  0, 19, 0,                               !- X,Y,Z Vertex 2 {m}
  0, 0, 0,                                !- X,Y,Z Vertex 3 {m}
  0, 0, 4;                                !- X,Y,Z Vertex 4 {m}

OS:Surface,
  {a13e8258-34ac-4469-a37d-194db8590d87}, !- Handle
  Surface 17,                             !- Name
  Wall,                                   !- Surface Type
  ,                                       !- Construction Name
  {6cf3215e-0d41-405a-a701-7dd964b4b9d8}, !- Space Name
  Surface,                                !- Outside Boundary Condition
  {fccfd9d1-9de8-4f1b-83ba-c9ccc5f0c44c}, !- Outside Boundary Condition Object
  NoSun,                                  !- Sun Exposure
  NoWind,                                 !- Wind Exposure
  ,                                       !- View Factor to Ground
  ,                                       !- Number of Vertices
  3, 22, 4,                               !- X,Y,Z Vertex 1 {m}
  3, 22, 0,                               !- X,Y,Z Vertex 2 {m}
  0, 19, 0,                               !- X,Y,Z Vertex 3 {m}
  0, 19, 4;                               !- X,Y,Z Vertex 4 {m}

OS:Surface,
  {d9118162-66dc-43af-8b51-704bd658ae75}, !- Handle
  Surface 18,                             !- Name
  RoofCeiling,                            !- Surface Type
  ,                                       !- Construction Name
  {6cf3215e-0d41-405a-a701-7dd964b4b9d8}, !- Space Name
  Surface,                                !- Outside Boundary Condition
  {6bac9a96-7d17-4562-af88-448808746c89}, !- Outside Boundary Condition Object
  NoSun,                                  !- Sun Exposure
  NoWind,                                 !- Wind Exposure
  ,                                       !- View Factor to Ground
  ,                                       !- Number of Vertices
  0, 19, 4,                               !- X,Y,Z Vertex 1 {m}
  0, 0, 4,                                !- X,Y,Z Vertex 2 {m}
  3, -3, 4,                               !- X,Y,Z Vertex 3 {m}
  3, 22, 4;                               !- X,Y,Z Vertex 4 {m}

OS:Space,
  {847621ee-dda4-49f5-85b3-a212d76277a1}, !- Handle
  Story 1 South Perimeter Space,          !- Name
  ,                                       !- Space Type Name
  ,                                       !- Default Construction Set Name
  ,                                       !- Default Schedule Set Name
  -0,                                     !- Direction of Relative North {deg}
  0,                                      !- X Origin {m}
  0,                                      !- Y Origin {m}
  0,                                      !- Z Origin {m}
  {90e1d1c7-2d4c-4d75-80e8-8b5d79dc8fe2}, !- Building Story Name
  {5fbe936d-ab01-4c06-8dca-75c85e377247}; !- Thermal Zone Name

OS:Surface,
  {5f2331d2-5869-4ee2-83ef-4d79b1948608}, !- Handle
  Surface 19,                             !- Name
  Floor,                                  !- Surface Type
  ,                                       !- Construction Name
  {847621ee-dda4-49f5-85b3-a212d76277a1}, !- Space Name
  Ground,                                 !- Outside Boundary Condition
  ,                                       !- Outside Boundary Condition Object
  NoSun,                                  !- Sun Exposure
  NoWind,                                 !- Wind Exposure
  ,                                       !- View Factor to Ground
  ,                                       !- Number of Vertices
  25, 0, 0,                               !- X,Y,Z Vertex 1 {m}
  0, 0, 0,                                !- X,Y,Z Vertex 2 {m}
  3, 3, 0,                                !- X,Y,Z Vertex 3 {m}
  22, 3, 0;                               !- X,Y,Z Vertex 4 {m}

OS:Surface,
  {a9a98024-d1da-45e5-a2f2-7db6e93e4b03}, !- Handle
  Surface 20,                             !- Name
  Wall,                                   !- Surface Type
  ,                                       !- Construction Name
  {847621ee-dda4-49f5-85b3-a212d76277a1}, !- Space Name
  Outdoors,                               !- Outside Boundary Condition
  ,                                       !- Outside Boundary Condition Object
  SunExposed,                             !- Sun Exposure
  WindExposed,                            !- Wind Exposure
  ,                                       !- View Factor to Ground
  ,                                       !- Number of Vertices
  0, 0, 4,                                !- X,Y,Z Vertex 1 {m}
  0, 0, 0,                                !- X,Y,Z Vertex 2 {m}
  25, 0, 0,                               !- X,Y,Z Vertex 3 {m}
  25, 0, 4;                               !- X,Y,Z Vertex 4 {m}

OS:Surface,
  {2ab23c0b-66f7-4a7b-bc36-5837dad00128}, !- Handle
  Surface 21,                             !- Name
  Wall,                                   !- Surface Type
  ,                                       !- Construction Name
  {847621ee-dda4-49f5-85b3-a212d76277a1}, !- Space Name
  Surface,                                !- Outside Boundary Condition
  {574b28ac-5078-4161-abbe-8e3c55507394}, !- Outside Boundary Condition Object
  NoSun,                                  !- Sun Exposure
  NoWind,                                 !- Wind Exposure
  ,                                       !- View Factor to Ground
  ,                                       !- Number of Vertices
  3, 3, 4,                                !- X,Y,Z Vertex 1 {m}
  3, 3, 0,                                !- X,Y,Z Vertex 2 {m}
  0, 0, 0,                                !- X,Y,Z Vertex 3 {m}
  0, 0, 4;                                !- X,Y,Z Vertex 4 {m}

OS:Surface,
  {9989f740-a7d1-491b-a3fe-900493bc1b33}, !- Handle
  Surface 22,                             !- Name
  Wall,                                   !- Surface Type
  ,                                       !- Construction Name
  {847621ee-dda4-49f5-85b3-a212d76277a1}, !- Space Name
  Surface,                                !- Outside Boundary Condition
  {cd0431e9-428d-41d4-bbee-b2bcff6ca345}, !- Outside Boundary Condition Object
  NoSun,                                  !- Sun Exposure
  NoWind,                                 !- Wind Exposure
  ,                                       !- View Factor to Ground
  ,                                       !- Number of Vertices
  22, 3, 4,                               !- X,Y,Z Vertex 1 {m}
  22, 3, 0,                               !- X,Y,Z Vertex 2 {m}
  3, 3, 0,                                !- X,Y,Z Vertex 3 {m}
  3, 3, 4;                                !- X,Y,Z Vertex 4 {m}

OS:Surface,
  {814afb4e-cd8d-4381-ae9e-ba8a886a1087}, !- Handle
  Surface 23,                             !- Name
  Wall,                                   !- Surface Type
  ,                                       !- Construction Name
  {847621ee-dda4-49f5-85b3-a212d76277a1}, !- Space Name
  Surface,                                !- Outside Boundary Condition
  {79af97a8-0e2b-44a6-a0ee-edad34b545d9}, !- Outside Boundary Condition Object
  NoSun,                                  !- Sun Exposure
  NoWind,                                 !- Wind Exposure
  ,                                       !- View Factor to Ground
  ,                                       !- Number of Vertices
  25, 0, 4,                               !- X,Y,Z Vertex 1 {m}
  25, 0, 0,                               !- X,Y,Z Vertex 2 {m}
  22, 3, 0,                               !- X,Y,Z Vertex 3 {m}
  22, 3, 4;                               !- X,Y,Z Vertex 4 {m}

OS:Surface,
  {7e11623a-57ff-4643-ba9f-d380521beb00}, !- Handle
  Surface 24,                             !- Name
  RoofCeiling,                            !- Surface Type
  ,                                       !- Construction Name
  {847621ee-dda4-49f5-85b3-a212d76277a1}, !- Space Name
  Surface,                                !- Outside Boundary Condition
  {0d9ed89b-1ab5-4409-a623-32e2047f336a}, !- Outside Boundary Condition Object
  NoSun,                                  !- Sun Exposure
  NoWind,                                 !- Wind Exposure
  ,                                       !- View Factor to Ground
  ,                                       !- Number of Vertices
  22, 3, 4,                               !- X,Y,Z Vertex 1 {m}
  3, 3, 4,                                !- X,Y,Z Vertex 2 {m}
  0, 0, 4,                                !- X,Y,Z Vertex 3 {m}
  25, 0, 4;                               !- X,Y,Z Vertex 4 {m}

OS:Space,
  {7e22876f-2be8-4928-9a9e-f8e89537b2c4}, !- Handle
  Story 1 Core Space,                     !- Name
  ,                                       !- Space Type Name
  ,                                       !- Default Construction Set Name
  ,                                       !- Default Schedule Set Name
  -0,                                     !- Direction of Relative North {deg}
  3,                                      !- X Origin {m}
  3,                                      !- Y Origin {m}
  0,                                      !- Z Origin {m}
  {90e1d1c7-2d4c-4d75-80e8-8b5d79dc8fe2}, !- Building Story Name
  {600aba1e-1573-46b4-8edc-1ea603f2c862}; !- Thermal Zone Name

OS:Surface,
  {6eb4291e-1b6d-4859-85e9-5e7c19e2d46f}, !- Handle
  Surface 25,                             !- Name
  Floor,                                  !- Surface Type
  ,                                       !- Construction Name
  {7e22876f-2be8-4928-9a9e-f8e89537b2c4}, !- Space Name
  Ground,                                 !- Outside Boundary Condition
  ,                                       !- Outside Boundary Condition Object
  NoSun,                                  !- Sun Exposure
  NoWind,                                 !- Wind Exposure
  ,                                       !- View Factor to Ground
  ,                                       !- Number of Vertices
  0, 0, 0,                                !- X,Y,Z Vertex 1 {m}
  0, 19, 0,                               !- X,Y,Z Vertex 2 {m}
  19, 19, 0,                              !- X,Y,Z Vertex 3 {m}
  19, 0, 0;                               !- X,Y,Z Vertex 4 {m}

OS:Surface,
  {cc2fdeaf-4f80-4c94-a00b-e2dbadac3e0f}, !- Handle
  Surface 26,                             !- Name
  Wall,                                   !- Surface Type
  ,                                       !- Construction Name
  {7e22876f-2be8-4928-9a9e-f8e89537b2c4}, !- Space Name
  Surface,                                !- Outside Boundary Condition
  {e2a2f4c6-72d5-4d04-8947-e569fa6f0abf}, !- Outside Boundary Condition Object
  NoSun,                                  !- Sun Exposure
  NoWind,                                 !- Wind Exposure
  ,                                       !- View Factor to Ground
  ,                                       !- Number of Vertices
  0, 19, 4,                               !- X,Y,Z Vertex 1 {m}
  0, 19, 0,                               !- X,Y,Z Vertex 2 {m}
  0, 0, 0,                                !- X,Y,Z Vertex 3 {m}
  0, 0, 4;                                !- X,Y,Z Vertex 4 {m}

OS:Surface,
  {24e3826b-4674-4b18-8f44-8762881faa46}, !- Handle
  Surface 27,                             !- Name
  Wall,                                   !- Surface Type
  ,                                       !- Construction Name
  {7e22876f-2be8-4928-9a9e-f8e89537b2c4}, !- Space Name
  Surface,                                !- Outside Boundary Condition
  {4bae495b-904c-4abd-b600-d7152b80a0df}, !- Outside Boundary Condition Object
  NoSun,                                  !- Sun Exposure
  NoWind,                                 !- Wind Exposure
  ,                                       !- View Factor to Ground
  ,                                       !- Number of Vertices
  19, 19, 4,                              !- X,Y,Z Vertex 1 {m}
  19, 19, 0,                              !- X,Y,Z Vertex 2 {m}
  0, 19, 0,                               !- X,Y,Z Vertex 3 {m}
  0, 19, 4;                               !- X,Y,Z Vertex 4 {m}

OS:Surface,
  {0cc0e8e8-d2a1-4318-b906-c7c2e0a7b061}, !- Handle
  Surface 28,                             !- Name
  Wall,                                   !- Surface Type
  ,                                       !- Construction Name
  {7e22876f-2be8-4928-9a9e-f8e89537b2c4}, !- Space Name