
OS:Version,
  {ae877279-7012-49c7-9915-c5b36787e5ba}, !- Handle
  0.10.0;                                 !- Version Identifier

OS:BuildingStory,
  {6e49e470-9358-4f9b-9af2-29b53a909f64}, !- Handle
  Story 1,                                !- Name
  0,                                      !- Nominal Z Coordinate {m}
  4,                                      !- Nominal Floor to Floor Height {m}
  ,                                       !- Default Construction Set Name
  ,                                       !- Default Schedule Set Name
  ;                                       !- Group Rendering Name

OS:Space,
  {a5c73297-412c-421b-942c-e1b8ab756bb2}, !- Handle
  Story 1 West Perimeter Space,           !- Name
  ,                                       !- Space Type Name
  ,                                       !- Default Construction Set Name
  ,                                       !- Default Schedule Set Name
  -0,                                     !- Direction of Relative North {deg}
  0,                                      !- X Origin {m}
  0,                                      !- Y Origin {m}
  0,                                      !- Z Origin {m}
  {6e49e470-9358-4f9b-9af2-29b53a909f64}, !- Building Story Name
  {373ac4e4-ec0d-4ad1-bb64-c3a0b2fa5e73}; !- Thermal Zone Name

OS:Surface,
  {4fdef197-ddbc-4b85-9560-f5069325e8a8}, !- Handle
  Surface 1,                              !- Name
  Floor,                                  !- Surface Type
  ,                                       !- Construction Name
  {a5c73297-412c-421b-942c-e1b8ab756bb2}, !- Space Name
  Ground,                                 !- Outside Boundary Condition
  ,                                       !- Outside Boundary Condition Object
  NoSun,                                  !- Sun Exposure
  NoWind,                                 !- Wind Exposure
  ,                                       !- View Factor to Ground
  ,                                       !- Number of Vertices
  0, 0, 0,                                !- X,Y,Z Vertex 1 {m}
  0, 12.9099444873581, 0,                 !- X,Y,Z Vertex 2 {m}
  3, 9.90994448735806, 0,                 !- X,Y,Z Vertex 3 {m}
  3, 3, 0;                                !- X,Y,Z Vertex 4 {m}

OS:Surface,
  {7531f42a-4e14-4dfd-be57-d7cd58db6ec5}, !- Handle
  Surface 2,                              !- Name
  Wall,                                   !- Surface Type
  ,                                       !- Construction Name
  {a5c73297-412c-421b-942c-e1b8ab756bb2}, !- Space Name
  Outdoors,                               !- Outside Boundary Condition
  ,                                       !- Outside Boundary Condition Object
  SunExposed,                             !- Sun Exposure
  WindExposed,                            !- Wind Exposure
  ,                                       !- View Factor to Ground
  ,                                       !- Number of Vertices
  0, 12.9099444873581, 4,                 !- X,Y,Z Vertex 1 {m}
  0, 12.9099444873581, 0,                 !- X,Y,Z Vertex 2 {m}
  0, 0, 0,                                !- X,Y,Z Vertex 3 {m}
  0, 0, 4;                                !- X,Y,Z Vertex 4 {m}

OS:Surface,
  {8f0f9875-9686-4431-931f-474415b751c2}, !- Handle
  Surface 3,                              !- Name
  Wall,                                   !- Surface Type
  ,                                       !- Construction Name
  {a5c73297-412c-421b-942c-e1b8ab756bb2}, !- Space Name
  Surface,                                !- Outside Boundary Condition
  {b12d0983-5185-41de-9e5a-07cae03fecd2}, !- Outside Boundary Condition Object
  NoSun,                                  !- Sun Exposure
  NoWind,                                 !- Wind Exposure
  ,                                       !- View Factor to Ground
  ,                                       !- Number of Vertices
  3, 9.90994448735806, 4,                 !- X,Y,Z Vertex 1 {m}
  3, 9.90994448735806, 0,                 !- X,Y,Z Vertex 2 {m}
  0, 12.9099444873581, 0,                 !- X,Y,Z Vertex 3 {m}
  0, 12.9099444873581, 4;                 !- X,Y,Z Vertex 4 {m}

OS:Surface,
  {822a8fae-42b0-411d-8aec-67560ca747d7}, !- Handle
  Surface 4,                              !- Name
  Wall,                                   !- Surface Type
  ,                                       !- Construction Name
  {a5c73297-412c-421b-942c-e1b8ab756bb2}, !- Space Name
  Surface,                                !- Outside Boundary Condition
  {ce0e78ed-41f5-41ff-b2bf-485871cd3397}, !- Outside Boundary Condition Object
  NoSun,                                  !- Sun Exposure
  NoWind,                                 !- Wind Exposure
  ,                                       !- View Factor to Ground
  ,                                       !- Number of Vertices
  3, 3, 4,                                !- X,Y,Z Vertex 1 {m}
  3, 3, 0,                                !- X,Y,Z Vertex 2 {m}
  3, 9.90994448735806, 0,                 !- X,Y,Z Vertex 3 {m}
  3, 9.90994448735806, 4;                 !- X,Y,Z Vertex 4 {m}

OS:Surface,
  {e0dd01a7-774a-4a8c-8b4a-b61a6f98d299}, !- Handle
  Surface 5,                              !- Name
  Wall,                                   !- Surface Type
  ,                                       !- Construction Name
  {a5c73297-412c-421b-942c-e1b8ab756bb2}, !- Space Name
  Surface,                                !- Outside Boundary Condition
  {b1365ce9-ce5c-4fec-9929-db66f49c8c0b}, !- Outside Boundary Condition Object
  NoSun,                                  !- Sun Exposure
  NoWind,                                 !- Wind Exposure
  ,                                       !- View Factor to Ground
  ,                                       !- Number of Vertices
  0, 0, 4,                                !- X,Y,Z Vertex 1 {m}
  0, 0, 0,                                !- X,Y,Z Vertex 2 {m}
  3, 3, 0,                                !- X,Y,Z Vertex 3 {m}
  3, 3, 4;                                !- X,Y,Z Vertex 4 {m}

OS:Surface,
  {927ae0ca-27aa-4040-9424-56574528c2a7}, !- Handle
  Surface 6,                              !- Name
  RoofCeiling,                            !- Surface Type
  ,                                       !- Construction Name
  {a5c73297-412c-421b-942c-e1b8ab756bb2}, !- Space Name
  Surface,                                !- Outside Boundary Condition
  {38d94df7-9c14-4f3d-8278-fc9369f52c10}, !- Outside Boundary Condition Object
  NoSun,                                  !- Sun Exposure
  NoWind,                                 !- Wind Exposure
  ,                                       !- View Factor to Ground
  ,                                       !- Number of Vertices
  3, 3, 4,                                !- X,Y,Z Vertex 1 {m}
  3, 9.90994448735806, 4,                 !- X,Y,Z Vertex 2 {m}
  0, 12.9099444873581, 4,                 !- X,Y,Z Vertex 3 {m}
  0, 0, 4;                                !- X,Y,Z Vertex 4 {m}

OS:Space,
  {9be3e1a5-6c3d-47ae-8764-c0a24c1542a8}, !- Handle
  Story 1 North Perimeter Space,          !- Name
  ,                                       !- Space Type Name
  ,                                       !- Default Construction Set Name
  ,                                       !- Default Schedule Set Name
  -0,                                     !- Direction of Relative North {deg}
  3,                                      !- X Origin {m}
  9.90994448735806,                       !- Y Origin {m}
  0,                                      !- Z Origin {m}
  {6e49e470-9358-4f9b-9af2-29b53a909f64}, !- Building Story Name
  {c1119527-5c8e-455c-947c-e6a573e69c93}; !- Thermal Zone Name

OS:Surface,
  {a0590408-75ac-4343-ac8a-9254cda5130e}, !- Handle
  Surface 7,                              !- Name
  Floor,                                  !- Surface Type
  ,                                       !- Construction Name
  {9be3e1a5-6c3d-47ae-8764-c0a24c1542a8}, !- Space Name
  Ground,                                 !- Outside Boundary Condition
  ,                                       !- Outside Boundary Condition Object
  NoSun,                                  !- Sun Exposure
  NoWind,                                 !- Wind Exposure
  ,                                       !- View Factor to Ground
  ,                                       !- Number of Vertices
  -3, 3.00000000000004, 0,                !- X,Y,Z Vertex 1 {m}
  9.9099444873581, 3.00000000000004, 0,   !- X,Y,Z Vertex 2 {m}
  6.90994448735806, 5.32907051820075e-15, 0, !- X,Y,Z Vertex 3 {m}
  0, 5.32907051820075e-15, 0;             !- X,Y,Z Vertex 4 {m}

OS:Surface,
  {30d2df59-0519-46ea-af20-e44a19cba672}, !- Handle
  Surface 8,                              !- Name
  Wall,                                   !- Surface Type
  ,                                       !- Construction Name
  {9be3e1a5-6c3d-47ae-8764-c0a24c1542a8}, !- Space Name
  Outdoors,                               !- Outside Boundary Condition
  ,                                       !- Outside Boundary Condition Object
  SunExposed,                             !- Sun Exposure
  WindExposed,                            !- Wind Exposure
  ,                                       !- View Factor to Ground
  ,                                       !- Number of Vertices
  9.9099444873581, 3.00000000000004, 4,   !- X,Y,Z Vertex 1 {m}
  9.9099444873581, 3.00000000000004, 0,   !- X,Y,Z Vertex 2 {m}
  -3, 3.00000000000004, 0,                !- X,Y,Z Vertex 3 {m}
  -3, 3.00000000000004, 4;                !- X,Y,Z Vertex 4 {m}

OS:Surface,
  {2affde09-9b95-4c6f-9ad3-1ce153bcd521}, !- Handle
  Surface 9,                              !- Name
  Wall,                                   !- Surface Type
  ,                                       !- Construction Name
  {9be3e1a5-6c3d-47ae-8764-c0a24c1542a8}, !- Space Name
  Surface,                                !- Outside Boundary Condition
  {0ba2c4a2-dae9-4ae6-87cc-28d5a0aad152}, !- Outside Boundary Condition Object
  NoSun,                                  !- Sun Exposure
  NoWind,                                 !- Wind Exposure
  ,                                       !- View Factor to Ground
  ,                                       !- Number of Vertices
  6.90994448735806, 5.32907051820075e-15, 4, !- X,Y,Z Vertex 1 {m}
  6.90994448735806, 5.32907051820075e-15, 0, !- X,Y,Z Vertex 2 {m}
  9.9099444873581, 3.00000000000004, 0,   !- X,Y,Z Vertex 3 {m}
  9.9099444873581, 3.00000000000004, 4;   !- X,Y,Z Vertex 4 {m}

OS:Surface,
  {14dc90a7-934d-4b77-bb08-3d3b6347a43e}, !- Handle
  Surface 10,                             !- Name
  Wall,                                   !- Surface Type
  ,                                       !- Construction Name
  {9be3e1a5-6c3d-47ae-8764-c0a24c1542a8}, !- Space Name
  Surface,                                !- Outside Boundary Condition
  {55685345-23e6-4c17-bed6-b1b28b74b898}, !- Outside Boundary Condition Object
  NoSun,                                  !- Sun Exposure
  NoWind,                                 !- Wind Exposure
  ,                                       !- View Factor to Ground
  ,                                       !- Number of Vertices
  0, 5.32907051820075e-15, 4,             !- X,Y,Z Vertex 1 {m}
  0, 5.32907051820075e-15, 0,             !- X,Y,Z Vertex 2 {m}
  6.90994448735806, 5.32907051820075e-15, 0, !- X,Y,Z Vertex 3 {m}
  6.90994448735806, 5.32907051820075e-15, 4; !- X,Y,Z Vertex 4 {m}

OS:Surface,
  {b12d0983-5185-41de-9e5a-07cae03fecd2}, !- Handle
  Surface 11,                             !- Name
  Wall,                                   !- Surface Type
  ,                                       !- Construction Name
  {9be3e1a5-6c3d-47ae-8764-c0a24c1542a8}, !- Space Name
  Surface,                                !- Outside Boundary Condition
  {8f0f9875-9686-4431-931f-474415b751c2}, !- Outside Boundary Condition Object
  NoSun,                                  !- Sun Exposure
  NoWind,                                 !- Wind Exposure
  ,                                       !- View Factor to Ground
  ,                                       !- Number of Vertices
  -3, 3.00000000000004, 4,                !- X,Y,Z Vertex 1 {m}
  -3, 3.00000000000004, 0,                !- X,Y,Z Vertex 2 {m}
  0, 5.32907051820075e-15, 0,             !- X,Y,Z Vertex 3 {m}
  0, 5.32907051820075e-15, 4;             !- X,Y,Z Vertex 4 {m}

OS:Surface,
  {d600da93-ca87-4944-a795-968b035ec883}, !- Handle
  Surface 12,                             !- Name
  RoofCeiling,                            !- Surface Type
  ,                                       !- Construction Name
  {9be3e1a5-6c3d-47ae-8764-c0a24c1542a8}, !- Space Name
  Surface,                                !- Outside Boundary Condition
  {79489d86-6360-4af5-a7bd-019c34362934}, !- Outside Boundary Condition Object
  NoSun,                                  !- Sun Exposure
  NoWind,                                 !- Wind Exposure
  ,                                       !- View Factor to Ground
  ,                                       !- Number of Vertices
  0, 5.32907051820075e-15, 4,             !- X,Y,Z Vertex 1 {m}
  6.90994448735806, 5.32907051820075e-15, 4, !- X,Y,Z Vertex 2 {m}
  9.9099444873581, 3.00000000000004, 4,   !- X,Y,Z Vertex 3 {m}
  -3, 3.00000000000004, 4;                !- X,Y,Z Vertex 4 {m}

OS:Space,
  {8072e156-a206-4055-a716-f0cc19824142}, !- Handle
  Story 1 East Perimeter Space,           !- Name
  ,                                       !- Space Type Name
  ,                                       !- Default Construction Set Name
  ,                                       !- Default Schedule Set Name
  -0,                                     !- Direction of Relative North {deg}
  9.90994448735806,                       !- X Origin {m}
  3,                                      !- Y Origin {m}
  0,                                      !- Z Origin {m}
  {6e49e470-9358-4f9b-9af2-29b53a909f64}, !- Building Story Name
  {6f18a551-e38b-4168-abc8-5a91908d0442}; !- Thermal Zone Name

OS:Surface,
  {591dc926-b5e8-4151-9b3e-f718c9ffa245}, !- Handle
  Surface 13,                             !- Name
  Floor,                                  !- Surface Type
  ,                                       !- Construction Name
  {8072e156-a206-4055-a716-f0cc19824142}, !- Space Name
  Ground,                                 !- Outside Boundary Condition
  ,                                       !- Outside Boundary Condition Object
  NoSun,                                  !- Sun Exposure
  NoWind,                                 !- Wind Exposure
  ,                                       !- View Factor to Ground
  ,                                       !- Number of Vertices
  3.00000000000004, 9.9099444873581, 0,   !- X,Y,Z Vertex 1 {m}
  3.00000000000004, -3, 0,                !- X,Y,Z Vertex 2 {m}
  5.32907051820075e-15, 0, 0,             !- X,Y,Z Vertex 3 {m}
  5.32907051820075e-15, 6.90994448735806, 0; !- X,Y,Z Vertex 4 {m}

OS:Surface,
  {5f503054-ebe7-4f56-92de-71b3d05adc4a}, !- Handle
  Surface 14,                             !- Name
  Wall,                                   !- Surface Type
  ,                                       !- Construction Name
  {8072e156-a206-4055-a716-f0cc19824142}, !- Space Name
  Outdoors,                               !- Outside Boundary Condition
  ,                                       !- Outside Boundary Condition Object
  SunExposed,                             !- Sun Exposure
  WindExposed,                            !- Wind Exposure
  ,                                       !- View Factor to Ground
  ,                                       !- Number of Vertices
  3.00000000000004, -3, 4,                !- X,Y,Z Vertex 1 {m}
  3.00000000000004, -3, 0,                !- X,Y,Z Vertex 2 {m}
  3.00000000000004, 9.9099444873581, 0,   !- X,Y,Z Vertex 3 {m}
  3.00000000000004, 9.9099444873581, 4;   !- X,Y,Z Vertex 4 {m}

OS:Surface,
  {188053bb-6ea3-4c25-b73a-6f9bfb659147}, !- Handle
  Surface 15,                             !- Name
  Wall,                                   !- Surface Type
  ,                                       !- Construction Name
  {8072e156-a206-4055-a716-f0cc19824142}, !- Space Name
  Surface,                                !- Outside Boundary Condition
  {462a4430-2a38-4ad3-9475-efe38828917a}, !- Outside Boundary Condition Object
  NoSun,                                  !- Sun Exposure
  NoWind,                                 !- Wind Exposure
  ,                                       !- View Factor to Ground
  ,                                       !- Number of Vertices
  5.32907051820075e-15, 0, 4,             !- X,Y,Z Vertex 1 {m}
  5.32907051820075e-15, 0, 0,             !- X,Y,Z Vertex 2 {m}
  3.00000000000004, -3, 0,                !- X,Y,Z Vertex 3 {m}
  3.00000000000004, -3, 4;                !- X,Y,Z Vertex 4 {m}

OS:Surface,
  {82df779a-fab2-4eaa-806f-44093160ecef}, !- Handle
  Surface 16,                             !- Name
  Wall,                                   !- Surface Type
  ,                                       !- Construction Name
  {8072e156-a206-4055-a716-f0cc19824142}, !- Space Name
  Surface,                                !- Outside Boundary Condition
  {5f772a69-80ef-4b52-9f29-83378237646d}, !- Outside Boundary Condition Object
  NoSun,                                  !- Sun Exposure
  NoWind,                                 !- Wind Exposure
  ,                                       !- View Factor to Ground
  ,                                       !- Number of Vertices
  5.32907051820075e-15, 6.90994448735806, 4, !- X,Y,Z Vertex 1 {m}
  5.32907051820075e-15, 6.90994448735806, 0, !- X,Y,Z Vertex 2 {m}
  5.32907051820075e-15, 0, 0,             !- X,Y,Z Vertex 3 {m}
  5.32907051820075e-15, 0, 4;             !- X,Y,Z Vertex 4 {m}

OS:Surface,
  {0ba2c4a2-dae9-4ae6-87cc-28d5a0aad152}, !- Handle
  Surface 17,                             !- Name
  Wall,                                   !- Surface Type
  ,                                       !- Construction Name
  {8072e156-a206-4055-a716-f0cc19824142}, !- Space Name
  Surface,                                !- Outside Boundary Condition
  {2affde09-9b95-4c6f-9ad3-1ce153bcd521}, !- Outside Boundary Condition Object
  NoSun,                                  !- Sun Exposure
  NoWind,                                 !- Wind Exposure
  ,                                       !- View Factor to Ground
  ,                                       !- Number of Vertices
  3.00000000000004, 9.9099444873581, 4,   !- X,Y,Z Vertex 1 {m}
  3.00000000000004, 9.9099444873581, 0,   !- X,Y,Z Vertex 2 {m}
  5.32907051820075e-15, 6.90994448735806, 0, !- X,Y,Z Vertex 3 {m}
  5.32907051820075e-15, 6.90994448735806, 4; !- X,Y,Z Vertex 4 {m}

OS:Surface,
  {fb74d7b0-bfea-4f7a-af99-5b2765704852}, !- Handle
  Surface 18,                             !- Name
  RoofCeiling,                            !- Surface Type
  ,                                       !- Construction Name
  {8072e156-a206-4055-a716-f0cc19824142}, !- Space Name
  Surface,                                !- Outside Boundary Condition
  {1ef0b2bc-a782-4137-93c6-b7f315d5c97c}, !- Outside Boundary Condition Object
  NoSun,                                  !- Sun Exposure
  NoWind,                                 !- Wind Exposure
  ,                                       !- View Factor to Ground
  ,                                       !- Number of Vertices
  5.32907051820075e-15, 6.90994448735806, 4, !- X,Y,Z Vertex 1 {m}
  5.32907051820075e-15, 0, 4,             !- X,Y,Z Vertex 2 {m}
  3.00000000000004, -3, 4,                !- X,Y,Z Vertex 3 {m}
  3.00000000000004, 9.9099444873581, 4;   !- X,Y,Z Vertex 4 {m}

OS:Space,
  {2c7d5d38-d670-4938-9a41-2146b88887ce}, !- Handle
  Story 1 South Perimeter Space,          !- Name
  ,                                       !- Space Type Name
  ,                                       !- Default Construction Set Name
  ,                                       !- Default Schedule Set Name
  -0,                                     !- Direction of Relative North {deg}
  0,                                      !- X Origin {m}
  0,                                      !- Y Origin {m}
  0,                                      !- Z Origin {m}
  {6e49e470-9358-4f9b-9af2-29b53a909f64}, !- Building Story Name
  {83038c0e-ee71-4e42-9495-d78dec562add}; !- Thermal Zone Name

OS:Surface,
  {37098d66-f7cb-41ac-a96c-fb4ac5d3e74b}, !- Handle
  Surface 19,                             !- Name
  Floor,                                  !- Surface Type
  ,                                       !- Construction Name
  {2c7d5d38-d670-4938-9a41-2146b88887ce}, !- Space Name
  Ground,                                 !- Outside Boundary Condition
  ,                                       !- Outside Boundary Condition Object
  NoSun,                                  !- Sun Exposure
  NoWind,                                 !- Wind Exposure
  ,                                       !- View Factor to Ground
  ,                                       !- Number of Vertices
  12.9099444873581, 0, 0,                 !- X,Y,Z Vertex 1 {m}
  0, 0, 0,                                !- X,Y,Z Vertex 2 {m}
  3, 3, 0,                                !- X,Y,Z Vertex 3 {m}
  9.90994448735806, 3, 0;                 !- X,Y,Z Vertex 4 {m}

OS:Surface,
  {5a91ada3-de01-4972-8386-2476d95c08e4}, !- Handle
  Surface 20,                             !- Name
  Wall,                                   !- Surface Type
  ,                                       !- Construction Name
  {2c7d5d38-d670-4938-9a41-2146b88887ce}, !- Space Name
  Outdoors,                               !- Outside Boundary Condition
  ,                                       !- Outside Boundary Condition Object
  SunExposed,                             !- Sun Exposure
  WindExposed,                            !- Wind Exposure
  ,                                       !- View Factor to Ground
  ,                                       !- Number of Vertices
  0, 0, 4,                                !- X,Y,Z Vertex 1 {m}
  0, 0, 0,                                !- X,Y,Z Vertex 2 {m}
  12.9099444873581, 0, 0,                 !- X,Y,Z Vertex 3 {m}
  12.9099444873581, 0, 4;                 !- X,Y,Z Vertex 4 {m}

OS:Surface,
  {b1365ce9-ce5c-4fec-9929-db66f49c8c0b}, !- Handle
  Surface 21,                             !- Name
  Wall,                                   !- Surface Type
  ,                                       !- Construction Name
  {2c7d5d38-d670-4938-9a41-2146b88887ce}, !- Space Name
  Surface,                                !- Outside Boundary Condition
  {e0dd01a7-774a-4a8c-8b4a-b61a6f98d299}, !- Outside Boundary Condition Object
  NoSun,                                  !- Sun Exposure
  NoWind,                                 !- Wind Exposure
  ,                                       !- View Factor to Ground
  ,                                       !- Number of Vertices
  3, 3, 4,                                !- X,Y,Z Vertex 1 {m}
  3, 3, 0,                                !- X,Y,Z Vertex 2 {m}
  0, 0, 0,                                !- X,Y,Z Vertex 3 {m}
  0, 0, 4;                                !- X,Y,Z Vertex 4 {m}

OS:Surface,
  {b1388a56-75c9-4d97-9495-75f8bb35569d}, !- Handle
  Surface 22,                             !- Name
  Wall,                                   !- Surface Type
  ,                                       !- Construction Name
  {2c7d5d38-d670-4938-9a41-2146b88887ce}, !- Space Name
  Surface,                                !- Outside Boundary Condition
  {004a24ca-a565-45e1-9358-a6f4ec39b342}, !- Outside Boundary Condition Object
  NoSun,                                  !- Sun Exposure
  NoWind,                                 !- Wind Exposure
  ,                                       !- View Factor to Ground
  ,                                       !- Number of Vertices
  9.90994448735806, 3, 4,                 !- X,Y,Z Vertex 1 {m}
  9.90994448735806, 3, 0,                 !- X,Y,Z Vertex 2 {m}
  3, 3, 0,                                !- X,Y,Z Vertex 3 {m}
  3, 3, 4;                                !- X,Y,Z Vertex 4 {m}

OS:Surface,
  {462a4430-2a38-4ad3-9475-efe38828917a}, !- Handle
  Surface 23,                             !- Name
  Wall,                                   !- Surface Type
  ,                                       !- Construction Name
  {2c7d5d38-d670-4938-9a41-2146b88887ce}, !- Space Name
  Surface,                                !- Outside Boundary Condition
  {188053bb-6ea3-4c25-b73a-6f9bfb659147}, !- Outside Boundary Condition Object
  NoSun,                                  !- Sun Exposure
  NoWind,                                 !- Wind Exposure
  ,                                       !- View Factor to Ground
  ,                                       !- Number of Vertices
  12.9099444873581, 0, 4,                 !- X,Y,Z Vertex 1 {m}
  12.9099444873581, 0, 0,                 !- X,Y,Z Vertex 2 {m}
  9.90994448735806, 3, 0,                 !- X,Y,Z Vertex 3 {m}
  9.90994448735806, 3, 4;                 !- X,Y,Z Vertex 4 {m}

OS:Surface,
  {9c7ba6a1-da3b-4548-921f-cbab307ba644}, !- Handle
  Surface 24,                             !- Name
  RoofCeiling,                            !- Surface Type
  ,                                       !- Construction Name
  {2c7d5d38-d670-4938-9a41-2146b88887ce}, !- Space Name
  Surface,                                !- Outside Boundary Condition
  {02b5be09-49df-4a83-82c5-800e8ed6ccc2}, !- Outside Boundary Condition Object
  NoSun,                                  !- Sun Exposure
  NoWind,                                 !- Wind Exposure
  ,                                       !- View Factor to Ground
  ,                                       !- Number of Vertices
  9.90994448735806, 3, 4,                 !- X,Y,Z Vertex 1 {m}
  3, 3, 4,                                !- X,Y,Z Vertex 2 {m}
  0, 0, 4,                                !- X,Y,Z Vertex 3 {m}
  12.9099444873581, 0, 4;                 !- X,Y,Z Vertex 4 {m}

OS:Space,
  {6643409f-e3cf-4d62-9b88-bbb69aa3ed09}, !- Handle
  Story 1 Core Space,                     !- Name
  ,                                       !- Space Type Name
  ,                                       !- Default Construction Set Name
  ,                                       !- Default Schedule Set Name
  -0,                                     !- Direction of Relative North {deg}
  3,                                      !- X Origin {m}
  3,                                      !- Y Origin {m}
  0,                                      !- Z Origin {m}
  {6e49e470-9358-4f9b-9af2-29b53a909f64}, !- Building Story Name
  {44811d76-cec6-4e53-a67c-a0b0b5ed700a}; !- Thermal Zone Name

OS:Surface,
  {7e7a0834-f21e-4424-9053-be62a01611ba}, !- Handle
  Surface 25,                             !- Name
  Floor,                                  !- Surface Type
  ,                                       !- Construction Name
  {6643409f-e3cf-4d62-9b88-bbb69aa3ed09}, !- Space Name
  Ground,                                 !- Outside Boundary Condition
  ,                                       !- Outside Boundary Condition Object
  NoSun,                                  !- Sun Exposure
  NoWind,                                 !- Wind Exposure
  ,                                       !- View Factor to Ground
  ,                                       !- Number of Vertices
  0, 0, 0,                                !- X,Y,Z Vertex 1 {m}
  0, 6.90994448735806, 0,                 !- X,Y,Z Vertex 2 {m}
  6.90994448735806, 6.90994448735806, 0,  !- X,Y,Z Vertex 3 {m}
  6.90994448735806, 0, 0;                 !- X,Y,Z Vertex 4 {m}

OS:Surface,
  {ce0e78ed-41f5-41ff-b2bf-485871cd3397}, !- Handle
  Surface 26,                             !- Name
  Wall,                                   !- Surface Type
  ,                                       !- Construction Name
  {6643409f-e3cf-4d62-9b88-bbb69aa3ed09}, !- Space Name
  Surface,                                !- Outside Boundary Condition
  {822a8fae-42b0-411d-8aec-67560ca747d7}, !- Outside Boundary Condition Object
  NoSun,                                  !- Sun Exposure
  NoWind,                                 !- Wind Exposure
  ,                                       !- View Factor to Ground
  ,                                       !- Number of Vertices
  0, 6.90994448735806, 4,                 !- X,Y,Z Vertex 1 {m}
  0, 6.90994448735806, 0,                 !- X,Y,Z Vertex 2 {m}
  0, 0, 0,                                !- X,Y,Z Vertex 3 {m}
  0, 0, 4;                                !- X,Y,Z Vertex 4 {m}

OS:Surface,
  {55685345-23e6-4c17-bed6-b1b28b74b898}, !- Handle
  Surface 27,                             !- Name
  Wall,                                   !- Surface Type
  ,                                       !- Construction Name
  {6643409f-e3cf-4d62-9b88-bbb69aa3ed09}, !- Space Name
  Surface,                                !- Outside Boundary Condition
  {14dc90a7-934d-4b77-bb08-3d3b6347a43e}, !- Outside Boundary Condition Object
  NoSun,                                  !- Sun Exposure
  NoWind,                                 !- Wind Exposure
  ,                                       !- View Factor to Ground
  ,                                       !- Number of Vertices
  6.90994448735806, 6.90994448735806, 4,  !- X,Y,Z Vertex 1 {m}
  6.90994448735806, 6.90994448735806, 0,  !- X,Y,Z Vertex 2 {m}
  0, 6.90994448735806, 0,                 !- X,Y,Z Vertex 3 {m}
  0, 6.90994448735806, 4;                 !- X,Y,Z Vertex 4 {m}

OS:Surface,
  {5f772a69-80ef-4b52-9f29-83378237646d}, !- Handle
  Surface 28,                             !- Name
  Wall,                                   !- Surface Type
  ,                                       !- Construction Name