
OS:Version,
  {98ffcfb8-e860-415b-9cda-bbe96838d80f}, !- Handle
  0.10.0;                                 !- Version Identifier

OS:BuildingStory,
  {f5c314e1-b3f1-46fd-84ed-52ea4fe693fc}, !- Handle
  Story 1,                                !- Name
  0,                                      !- Nominal Z Coordinate {m}
  4,                                      !- Nominal Floor to Floor Height {m}
  ,                                       !- Default Construction Set Name
  ,                                       !- Default Schedule Set Name
  ;                                       !- Group Rendering Name

OS:Space,
  {1002d8c5-95d0-4ddd-b652-009886a941a4}, !- Handle
  Story 1 West Perimeter Space,           !- Name
  ,                                       !- Space Type Name
  ,                                       !- Default Construction Set Name
  ,                                       !- Default Schedule Set Name
  -0,                                     !- Direction of Relative North {deg}
  0,                                      !- X Origin {m}
  0,                                      !- Y Origin {m}
  0,                                      !- Z Origin {m}
  {f5c314e1-b3f1-46fd-84ed-52ea4fe693fc}, !- Building Story Name
  {072f231e-603c-4f50-8ad4-8794228e48e7}; !- Thermal Zone Name

OS:Surface,
  {56470a81-2377-459d-96c0-1e2e4526ea1c}, !- Handle
  Surface 1,                              !- Name
  Floor,                                  !- Surface Type
  ,                                       !- Construction Name
  {1002d8c5-95d0-4ddd-b652-009886a941a4}, !- Space Name
  Ground,                                 !- Outside Boundary Condition
  ,                                       !- Outside Boundary Condition Object
  NoSun,                                  !- Sun Exposure
  NoWind,                                 !- Wind Exposure
  ,                                       !- View Factor to Ground
  ,                                       !- Number of Vertices
  0, 0, 0,                                !- X,Y,Z Vertex 1 {m}
  0, 7.90569415042095, 0,                 !- X,Y,Z Vertex 2 {m}
  3, 4.90569415042095, 0,                 !- X,Y,Z Vertex 3 {m}
  3, 3, 0;                                !- X,Y,Z Vertex 4 {m}

OS:Surface,
  {3f5a8f69-50cb-4960-9b11-339dc6c98712}, !- Handle
  Surface 2,                              !- Name
  Wall,                                   !- Surface Type
  ,                                       !- Construction Name
  {1002d8c5-95d0-4ddd-b652-009886a941a4}, !- Space Name
  Outdoors,                               !- Outside Boundary Condition
  ,                                       !- Outside Boundary Condition Object
  SunExposed,                             !- Sun Exposure
  WindExposed,                            !- Wind Exposure
  ,                                       !- View Factor to Ground
  ,                                       !- Number of Vertices
  0, 7.90569415042095, 4,                 !- X,Y,Z Vertex 1 {m}
  0, 7.90569415042095, 0,                 !- X,Y,Z Vertex 2 {m}
  0, 0, 0,                                !- X,Y,Z Vertex 3 {m}
  0, 0, 4;                                !- X,Y,Z Vertex 4 {m}

OS:Surface,
  {835624c9-9b36-4075-a142-39fd67e7f02c}, !- Handle
  Surface 3,                              !- Name
  Wall,                                   !- Surface Type
  ,                                       !- Construction Name
  {1002d8c5-95d0-4ddd-b652-009886a941a4}, !- Space Name
  Surface,                                !- Outside Boundary Condition
  {e5031f83-ba3e-40d0-bf4e-7bc815fcd011}, !- Outside Boundary Condition Object
  NoSun,                                  !- Sun Exposure
  NoWind,                                 !- Wind Exposure
  ,                                       !- View Factor to Ground
  ,                                       !- Number of Vertices
  3, 4.90569415042095, 4,                 !- X,Y,Z Vertex 1 {m}
  3, 4.90569415042095, 0,                 !- X,Y,Z Vertex 2 {m}
  0, 7.90569415042095, 0,                 !- X,Y,Z Vertex 3 {m}
  0, 7.90569415042095, 4;                 !- X,Y,Z Vertex 4 {m}

OS:Surface,
  {24aeab46-ac70-4987-a2c6-f9b4ff527350}, !- Handle
  Surface 4,                              !- Name
  Wall,                                   !- Surface Type
  ,                                       !- Construction Name
  {1002d8c5-95d0-4ddd-b652-009886a941a4}, !- Space Name
  Surface,                                !- Outside Boundary Condition
  {e3be08c5-e717-44ec-8ae5-ea38cbe3aff1}, !- Outside Boundary Condition Object
  NoSun,                                  !- Sun Exposure
  NoWind,                                 !- Wind Exposure
  ,                                       !- View Factor to Ground
  ,                                       !- Number of Vertices
  3, 3, 4,                                !- X,Y,Z Vertex 1 {m}
  3, 3, 0,                                !- X,Y,Z Vertex 2 {m}
  3, 4.90569415042095, 0,                 !- X,Y,Z Vertex 3 {m}
  3, 4.90569415042095, 4;                 !- X,Y,Z Vertex 4 {m}

OS:Surface,
  {7e400a7e-85bd-4f1e-96a6-695c729cc3dd}, !- Handle
  Surface 5,                              !- Name
  Wall,                                   !- Surface Type
  ,                                       !- Construction Name
  {1002d8c5-95d0-4ddd-b652-009886a941a4}, !- Space Name
  Surface,                                !- Outside Boundary Condition
  {791aef07-3b87-49b2-b1fe-c9d99805fbda}, !- Outside Boundary Condition Object
  NoSun,                                  !- Sun Exposure
  NoWind,                                 !- Wind Exposure
  ,                                       !- View Factor to Ground
  ,                                       !- Number of Vertices
  0, 0, 4,                                !- X,Y,Z Vertex 1 {m}
  0, 0, 0,                                !- X,Y,Z Vertex 2 {m}
  3, 3, 0,                                !- X,Y,Z Vertex 3 {m}
  3, 3, 4;                                !- X,Y,Z Vertex 4 {m}

OS:Surface,
  {aa3cc8c5-81a4-4f2f-8dfc-2c8139ed3e47}, !- Handle
  Surface 6,                              !- Name
  RoofCeiling,                            !- Surface Type
  ,                                       !- Construction Name
  {1002d8c5-95d0-4ddd-b652-009886a941a4}, !- Space Name
  Surface,                                !- Outside Boundary Condition
  {676e2785-3597-4917-81b1-a83c42f7ae4d}, !- Outside Boundary Condition Object
  NoSun,                                  !- Sun Exposure
  NoWind,                                 !- Wind Exposure
  ,                                       !- View Factor to Ground
  ,                                       !- Number of Vertices
  3, 3, 4,                                !- X,Y,Z Vertex 1 {m}
  3, 4.90569415042095, 4,                 !- X,Y,Z Vertex 2 {m}
  0, 7.90569415042095, 4,                 !- X,Y,Z Vertex 3 {m}
  0, 0, 4;                                !- X,Y,Z Vertex 4 {m}

OS:Space,
  {73b7abac-35da-406c-9b0f-8054a43fc215}, !- Handle
  Story 1 North Perimeter Space,          !- Name
  ,                                       !- Space Type Name
  ,                                       !- Default Construction Set Name
  ,                                       !- Default Schedule Set Name
  -0,                                     !- Direction of Relative North {deg}
  3,                                      !- X Origin {m}
  4.90569415042095,                       !- Y Origin {m}
  0,                                      !- Z Origin {m}
  {f5c314e1-b3f1-46fd-84ed-52ea4fe693fc}, !- Building Story Name
  {a70e9db2-14aa-4cd0-930a-d0632fd03fed}; !- Thermal Zone Name

OS:Surface,
  {70179625-f4a5-47d9-8c25-179f86a43a8a}, !- Handle
  Surface 7,                              !- Name
  Floor,                                  !- Surface Type
  ,                                       !- Construction Name
  {73b7abac-35da-406c-9b0f-8054a43fc215}, !- Space Name
  Ground,                                 !- Outside Boundary Condition
  ,                                       !- Outside Boundary Condition Object
  NoSun,                                  !- Sun Exposure
  NoWind,                                 !- Wind Exposure
  ,                                       !- View Factor to Ground
  ,                                       !- Number of Vertices
  -3, 3, 0,                               !- X,Y,Z Vertex 1 {m}
  4.90569415042095, 3, 0,                 !- X,Y,Z Vertex 2 {m}
  1.90569415042095, 1.77635683940025e-15, 0, !- X,Y,Z Vertex 3 {m}
  0, 1.77635683940025e-15, 0;             !- X,Y,Z Vertex 4 {m}

OS:Surface,
  {66335a80-b448-43dd-a8de-097589075172}, !- Handle
  Surface 8,                              !- Name
  Wall,                                   !- Surface Type
  ,                                       !- Construction Name
  {73b7abac-35da-406c-9b0f-8054a43fc215}, !- Space Name
  Outdoors,                               !- Outside Boundary Condition
  ,                                       !- Outside Boundary Condition Object
  SunExposed,                             !- Sun Exposure
  WindExposed,                            !- Wind Exposure
  ,                                       !- View Factor to Ground
  ,                                       !- Number of Vertices
  4.90569415042095, 3, 4,                 !- X,Y,Z Vertex 1 {m}
  4.90569415042095, 3, 0,                 !- X,Y,Z Vertex 2 {m}
  -3, 3, 0,                               !- X,Y,Z Vertex 3 {m}
  -3, 3, 4;                               !- X,Y,Z Vertex 4 {m}

OS:Surface,
  {aa1aae0a-a78a-49ec-8e17-7afa62db3443}, !- Handle
  Surface 9,                              !- Name
  Wall,                                   !- Surface Type
  ,                                       !- Construction Name
  {73b7abac-35da-406c-9b0f-8054a43fc215}, !- Space Name
  Surface,                                !- Outside Boundary Condition
  {381d9b6b-49e1-415d-9b18-31d4306c57be}, !- Outside Boundary Condition Object
  NoSun,                                  !- Sun Exposure
  NoWind,                                 !- Wind Exposure
  ,                                       !- View Factor to Ground
  ,                                       !- Number of Vertices
  1.90569415042095, 1.77635683940025e-15, 4, !- X,Y,Z Vertex 1 {m}
  1.90569415042095, 1.77635683940025e-15, 0, !- X,Y,Z Vertex 2 {m}
  4.90569415042095, 3, 0,                 !- X,Y,Z Vertex 3 {m}
  4.90569415042095, 3, 4;                 !- X,Y,Z Vertex 4 {m}

OS:Surface,
  {d0f475a1-64b0-4bfd-af9f-6fbf461888f9}, !- Handle
  Surface 10,                             !- Name
  Wall,                                   !- Surface Type
  ,                                       !- Construction Name
  {73b7abac-35da-406c-9b0f-8054a43fc215}, !- Space Name
  Surface,                                !- Outside Boundary Condition
  {cfb33f8d-78c8-46e6-bedd-d3457f826a09}, !- Outside Boundary Condition Object
  NoSun,                                  !- Sun Exposure
  NoWind,                                 !- Wind Exposure
  ,                                       !- View Factor to Ground
  ,                                       !- Number of Vertices
  0, 1.77635683940025e-15, 4,             !- X,Y,Z Vertex 1 {m}
  0, 1.77635683940025e-15, 0,             !- X,Y,Z Vertex 2 {m}
  1.90569415042095, 1.77635683940025e-15, 0, !- X,Y,Z Vertex 3 {m}
  1.90569415042095, 1.77635683940025e-15, 4; !- X,Y,Z Vertex 4 {m}

OS:Surface,
  {e5031f83-ba3e-40d0-bf4e-7bc815fcd011}, !- Handle
  Surface 11,                             !- Name
  Wall,                                   !- Surface Type
  ,                                       !- Construction Name
  {73b7abac-35da-406c-9b0f-8054a43fc215}, !- Space Name
  Surface,                                !- Outside Boundary Condition
  {835624c9-9b36-4075-a142-39fd67e7f02c}, !- Outside Boundary Condition Object
  NoSun,                                  !- Sun Exposure
  NoWind,                                 !- Wind Exposure
  ,                                       !- View Factor to Ground
  ,                                       !- Number of Vertices
  -3, 3, 4,                               !- X,Y,Z Vertex 1 {m}
  -3, 3, 0,                               !- X,Y,Z Vertex 2 {m}
  0, 1.77635683940025e-15, 0,             !- X,Y,Z Vertex 3 {m}
  0, 1.77635683940025e-15, 4;             !- X,Y,Z Vertex 4 {m}

OS:Surface,
  {e307bd2b-8f4c-4e69-9704-adc12ae162fc}, !- Handle
  Surface 12,                             !- Name
  RoofCeiling,                            !- Surface Type
  ,                                       !- Construction Name
  {73b7abac-35da-406c-9b0f-8054a43fc215}, !- Space Name
  Surface,                                !- Outside Boundary Condition
  {b9c1b311-6697-4a2e-b389-223cb5d9116c}, !- Outside Boundary Condition Object
  NoSun,                                  !- Sun Exposure
  NoWind,                                 !- Wind Exposure
  ,                                       !- View Factor to Ground
  ,                                       !- Number of Vertices
  0, 1.77635683940025e-15, 4,             !- X,Y,Z Vertex 1 {m}
  1.90569415042095, 1.77635683940025e-15, 4, !- X,Y,Z Vertex 2 {m}
  4.90569415042095, 3, 4,                 !- X,Y,Z Vertex 3 {m}
  -3, 3, 4;                               !- X,Y,Z Vertex 4 {m}

OS:Space,
  {570d5a9f-986e-4e46-90e2-1f3fa8f7a11f}, !- Handle
  Story 1 East Perimeter Space,           !- Name
  ,                                       !- Space Type Name
  ,                                       !- Default Construction Set Name
  ,                                       !- Default Schedule Set Name
  -0,                                     !- Direction of Relative North {deg}
  4.90569415042095,                       !- X Origin {m}
  3,                                      !- Y Origin {m}
  0,                                      !- Z Origin {m}
  {f5c314e1-b3f1-46fd-84ed-52ea4fe693fc}, !- Building Story Name
  {ac37ade0-64be-4998-866b-bf30e730bec0}; !- Thermal Zone Name

OS:Surface,
  {64fe865d-4765-4788-ba78-057ffcb7d90d}, !- Handle
  Surface 13,                             !- Name
  Floor,                                  !- Surface Type
  ,                                       !- Construction Name
  {570d5a9f-986e-4e46-90e2-1f3fa8f7a11f}, !- Space Name
  Ground,                                 !- Outside Boundary Condition
  ,                                       !- Outside Boundary Condition Object
  NoSun,                                  !- Sun Exposure
  NoWind,                                 !- Wind Exposure
  ,                                       !- View Factor to Ground
  ,                                       !- Number of Vertices
  3, 4.90569415042095, 0,                 !- X,Y,Z Vertex 1 {m}
  3, -3, 0,                               !- X,Y,Z Vertex 2 {m}
  1.77635683940025e-15, 0, 0,             !- X,Y,Z Vertex 3 {m}
  1.77635683940025e-15, 1.90569415042095, 0; !- X,Y,Z Vertex 4 {m}

OS:Surface,
  {f820d47e-6832-4367-a21a-25c1153aac70}, !- Handle
  Surface 14,                             !- Name
  Wall,                                   !- Surface Type
  ,                                       !- Construction Name
  {570d5a9f-986e-4e46-90e2-1f3fa8f7a11f}, !- Space Name
  Outdoors,                               !- Outside Boundary Condition
  ,                                       !- Outside Boundary Condition Object
  SunExposed,                             !- Sun Exposure
  WindExposed,                            !- Wind Exposure
  ,                                       !- View Factor to Ground
  ,                                       !- Number of Vertices
  3, -3, 4,                               !- X,Y,Z Vertex 1 {m}
  3, -3, 0,                               !- X,Y,Z Vertex 2 {m}
  3, 4.90569415042095, 0,                 !- X,Y,Z Vertex 3 {m}
  3, 4.90569415042095, 4;                 !- X,Y,Z Vertex 4 {m}

OS:Surface,
  {cd26f106-2203-4be1-a9cf-f456bd536170}, !- Handle
  Surface 15,                             !- Name
  Wall,                                   !- Surface Type
  ,                                       !- Construction Name
  {570d5a9f-986e-4e46-90e2-1f3fa8f7a11f}, !- Space Name
  Surface,                                !- Outside Boundary Condition
  {c7ea8fa3-2cbd-4a5b-a0a2-69438d777ad3}, !- Outside Boundary Condition Object
  NoSun,                                  !- Sun Exposure
  NoWind,                                 !- Wind Exposure
  ,                                       !- View Factor to Ground
  ,                                       !- Number of Vertices
  1.77635683940025e-15, 0, 4,             !- X,Y,Z Vertex 1 {m}
  1.77635683940025e-15, 0, 0,             !- X,Y,Z Vertex 2 {m}
  3, -3, 0,                               !- X,Y,Z Vertex 3 {m}
  3, -3, 4;                               !- X,Y,Z Vertex 4 {m}

OS:Surface,
  {2970ca3f-1570-4110-b1e3-e821f0d080a4}, !- Handle
  Surface 16,                             !- Name
  Wall,                                   !- Surface Type
  ,                                       !- Construction Name
  {570d5a9f-986e-4e46-90e2-1f3fa8f7a11f}, !- Space Name
  Surface,                                !- Outside Boundary Condition
  {769547d4-f7bb-4ace-8c65-2bb5db63d9e1}, !- Outside Boundary Condition Object
  NoSun,                                  !- Sun Exposure
  NoWind,                                 !- Wind Exposure
  ,                                       !- View Factor to Ground
  ,                                       !- Number of Vertices
  1.77635683940025e-15, 1.90569415042095, 4, !- X,Y,Z Vertex 1 {m}
  1.77635683940025e-15, 1.90569415042095, 0, !- X,Y,Z Vertex 2 {m}
  1.77635683940025e-15, 0, 0,             !- X,Y,Z Vertex 3 {m}
  1.77635683940025e-15, 0, 4;             !- X,Y,Z Vertex 4 {m}

OS:Surface,
  {381d9b6b-49e1-415d-9b18-31d4306c57be}, !- Handle
  Surface 17,                             !- Name
  Wall,                                   !- Surface Type
  ,                                       !- Construction Name
  {570d5a9f-986e-4e46-90e2-1f3fa8f7a11f}, !- Space Name
  Surface,                                !- Outside Boundary Condition
  {aa1aae0a-a78a-49ec-8e17-7afa62db3443}, !- Outside Boundary Condition Object
  NoSun,                                  !- Sun Exposure
  NoWind,                                 !- Wind Exposure
  ,                                       !- View Factor to Ground
  ,                                       !- Number of Vertices
  3, 4.90569415042095, 4,                 !- X,Y,Z Vertex 1 {m}
  3, 4.90569415042095, 0,                 !- X,Y,Z Vertex 2 {m}
  1.77635683940025e-15, 1.90569415042095, 0, !- X,Y,Z Vertex 3 {m}
  1.77635683940025e-15, 1.90569415042095, 4; !- X,Y,Z Vertex 4 {m}

OS:Surface,
  {11a8b906-ae86-475f-80c6-bafb1ee938c9}, !- Handle
  Surface 18,                             !- Name
  RoofCeiling,                            !- Surface Type
  ,                                       !- Construction Name
  {570d5a9f-986e-4e46-90e2-1f3fa8f7a11f}, !- Space Name
  Surface,                                !- Outside Boundary Condition
  {6e702d73-0465-46a3-8035-fe6f1fe19451}, !- Outside Boundary Condition Object
  NoSun,                                  !- Sun Exposure
  NoWind,                                 !- Wind Exposure
  ,                                       !- View Factor to Ground
  ,                                       !- Number of Vertices
  1.77635683940025e-15, 1.90569415042095, 4, !- X,Y,Z Vertex 1 {m}
  1.77635683940025e-15, 0, 4,             !- X,Y,Z Vertex 2 {m}
  3, -3, 4,                               !- X,Y,Z Vertex 3 {m}
  3, 4.90569415042095, 4;                 !- X,Y,Z Vertex 4 {m}

OS:Space,
  {b82e2c77-6c5a-4c33-9144-a82b860cefb6}, !- Handle
  Story 1 South Perimeter Space,          !- Name
  ,                                       !- Space Type Name
  ,                                       !- Default Construction Set Name
  ,                                       !- Default Schedule Set Name
  -0,                                     !- Direction of Relative North {deg}
  0,                                      !- X Origin {m}
  0,                                      !- Y Origin {m}
  0,                                      !- Z Origin {m}
  {f5c314e1-b3f1-46fd-84ed-52ea4fe693fc}, !- Building Story Name
  {20b7b1e9-d61f-45ba-bfdf-e155e334f899}; !- Thermal Zone Name

OS:Surface,
  {a01608cd-9802-4216-acd9-dc43b26ffec5}, !- Handle
  Surface 19,                             !- Name
  Floor,                                  !- Surface Type
  ,                                       !- Construction Name
  {b82e2c77-6c5a-4c33-9144-a82b860cefb6}, !- Space Name
  Ground,                                 !- Outside Boundary Condition
  ,                                       !- Outside Boundary Condition Object
  NoSun,                                  !- Sun Exposure
  NoWind,                                 !- Wind Exposure
  ,                                       !- View Factor to Ground
  ,                                       !- Number of Vertices
  7.90569415042095, 0, 0,                 !- X,Y,Z Vertex 1 {m}
  0, 0, 0,                                !- X,Y,Z Vertex 2 {m}
  3, 3, 0,                                !- X,Y,Z Vertex 3 {m}
  4.90569415042095, 3, 0;                 !- X,Y,Z Vertex 4 {m}

OS:Surface,
  {844f6bbd-fe0f-45c2-a1b6-4bf01b21203c}, !- Handle
  Surface 20,                             !- Name
  Wall,                                   !- Surface Type
  ,                                       !- Construction Name
  {b82e2c77-6c5a-4c33-9144-a82b860cefb6}, !- Space Name
  Outdoors,                               !- Outside Boundary Condition
  ,                                       !- Outside Boundary Condition Object
  SunExposed,                             !- Sun Exposure
  WindExposed,                            !- Wind Exposure
  ,                                       !- View Factor to Ground
  ,                                       !- Number of Vertices
  0, 0, 4,                                !- X,Y,Z Vertex 1 {m}
  0, 0, 0,                                !- X,Y,Z Vertex 2 {m}
  7.90569415042095, 0, 0,                 !- X,Y,Z Vertex 3 {m}
  7.90569415042095, 0, 4;                 !- X,Y,Z Vertex 4 {m}

OS:Surface,
  {791aef07-3b87-49b2-b1fe-c9d99805fbda}, !- Handle
  Surface 21,                             !- Name
  Wall,                                   !- Surface Type
  ,                                       !- Construction Name
  {b82e2c77-6c5a-4c33-9144-a82b860cefb6}, !- Space Name
  Surface,                                !- Outside Boundary Condition
  {7e400a7e-85bd-4f1e-96a6-695c729cc3dd}, !- Outside Boundary Condition Object
  NoSun,                                  !- Sun Exposure
  NoWind,                                 !- Wind Exposure
  ,                                       !- View Factor to Ground
  ,                                       !- Number of Vertices
  3, 3, 4,                                !- X,Y,Z Vertex 1 {m}
  3, 3, 0,                                !- X,Y,Z Vertex 2 {m}
  0, 0, 0,                                !- X,Y,Z Vertex 3 {m}
  0, 0, 4;                                !- X,Y,Z Vertex 4 {m}

OS:Surface,
  {eee2457b-fdd0-4341-b313-43994841799f}, !- Handle
  Surface 22,                             !- Name
  Wall,                                   !- Surface Type
  ,                                       !- Construction Name
  {b82e2c77-6c5a-4c33-9144-a82b860cefb6}, !- Space Name
  Surface,                                !- Outside Boundary Condition
  {72eca701-b00c-455f-9c92-dfbbb5a642d3}, !- Outside Boundary Condition Object
  NoSun,                                  !- Sun Exposure
  NoWind,                                 !- Wind Exposure
  ,                                       !- View Factor to Ground
  ,                                       !- Number of Vertices
  4.90569415042095, 3, 4,                 !- X,Y,Z Vertex 1 {m}
  4.90569415042095, 3, 0,                 !- X,Y,Z Vertex 2 {m}
  3, 3, 0,                                !- X,Y,Z Vertex 3 {m}
  3, 3, 4;                                !- X,Y,Z Vertex 4 {m}

OS:Surface,
  {c7ea8fa3-2cbd-4a5b-a0a2-69438d777ad3}, !- Handle
  Surface 23,                             !- Name
  Wall,                                   !- Surface Type
  ,                                       !- Construction Name
  {b82e2c77-6c5a-4c33-9144-a82b860cefb6}, !- Space Name
  Surface,                                !- Outside Boundary Condition
  {cd26f106-2203-4be1-a9cf-f456bd536170}, !- Outside Boundary Condition Object
  NoSun,                                  !- Sun Exposure
  NoWind,                                 !- Wind Exposure
  ,                                       !- View Factor to Ground
  ,                                       !- Number of Vertices
  7.90569415042095, 0, 4,                 !- X,Y,Z Vertex 1 {m}
  7.90569415042095, 0, 0,                 !- X,Y,Z Vertex 2 {m}
  4.90569415042095, 3, 0,                 !- X,Y,Z Vertex 3 {m}
  4.90569415042095, 3, 4;                 !- X,Y,Z Vertex 4 {m}

OS:Surface,
  {9d483a59-3841-4761-b00b-a96a4d7ebdd9}, !- Handle
  Surface 24,                             !- Name
  RoofCeiling,                            !- Surface Type
  ,                                       !- Construction Name
  {b82e2c77-6c5a-4c33-9144-a82b860cefb6}, !- Space Name
  Surface,                                !- Outside Boundary Condition
  {f12f3148-7621-4796-83b2-56277f2499f3}, !- Outside Boundary Condition Object
  NoSun,                                  !- Sun Exposure
  NoWind,                                 !- Wind Exposure
  ,                                       !- View Factor to Ground
  ,                                       !- Number of Vertices
  4.90569415042095, 3, 4,                 !- X,Y,Z Vertex 1 {m}
  3, 3, 4,                                !- X,Y,Z Vertex 2 {m}
  0, 0, 4,                                !- X,Y,Z Vertex 3 {m}
  7.90569415042095, 0, 4;                 !- X,Y,Z Vertex 4 {m}

OS:Space,
  {48fda1ed-a479-44ed-9942-b496e82b57aa}, !- Handle
  Story 1 Core Space,                     !- Name
  ,                                       !- Space Type Name
  ,                                       !- Default Construction Set Name
  ,                                       !- Default Schedule Set Name
  -0,                                     !- Direction of Relative North {deg}
  3,                                      !- X Origin {m}
  3,                                      !- Y Origin {m}
  0,                                      !- Z Origin {m}
  {f5c314e1-b3f1-46fd-84ed-52ea4fe693fc}, !- Building Story Name
  {c3e67ce4-7ae5-44a3-8433-53fc684c684f}; !- Thermal Zone Name

OS:Surface,
  {ce72a8db-9cd3-4bed-8aaf-a87c3d7c8caa}, !- Handle
  Surface 25,                             !- Name
  Floor,                                  !- Surface Type
  ,                                       !- Construction Name
  {48fda1ed-a479-44ed-9942-b496e82b57aa}, !- Space Name
  Ground,                                 !- Outside Boundary Condition
  ,                                       !- Outside Boundary Condition Object
  NoSun,                                  !- Sun Exposure
  NoWind,                                 !- Wind Exposure
  ,                                       !- View Factor to Ground
  ,                                       !- Number of Vertices
  0, 0, 0,                                !- X,Y,Z Vertex 1 {m}
  0, 1.90569415042095, 0,                 !- X,Y,Z Vertex 2 {m}
  1.90569415042095, 1.90569415042095, 0,  !- X,Y,Z Vertex 3 {m}
  1.90569415042095, 0, 0;                 !- X,Y,Z Vertex 4 {m}

OS:Surface,
  {e3be08c5-e717-44ec-8ae5-ea38cbe3aff1}, !- Handle
  Surface 26,                             !- Name
  Wall,                                   !- Surface Type
  ,                                       !- Construction Name
  {48fda1ed-a479-44ed-9942-b496e82b57aa}, !- Space Name
  Surface,                                !- Outside Boundary Condition
  {24aeab46-ac70-4987-a2c6-f9b4ff527350}, !- Outside Boundary Condition Object
  NoSun,                                  !- Sun Exposure
  NoWind,                                 !- Wind Exposure
  ,                                       !- View Factor to Ground
  ,                                       !- Number of Vertices
  0, 1.90569415042095, 4,                 !- X,Y,Z Vertex 1 {m}
  0, 1.90569415042095, 0,                 !- X,Y,Z Vertex 2 {m}
  0, 0, 0,                                !- X,Y,Z Vertex 3 {m}
  0, 0, 4;                                !- X,Y,Z Vertex 4 {m}

OS:Surface,
  {cfb33f8d-78c8-46e6-bedd-d3457f826a09}, !- Handle
  Surface 27,                             !- Name
  Wall,                                   !- Surface Type
  ,                                       !- Construction Name
  {48fda1ed-a479-44ed-9942-b496e82b57aa}, !- Space Name
  Surface,                                !- Outside Boundary Condition
  {d0f475a1-64b0-4bfd-af9f-6fbf461888f9}, !- Outside Boundary Condition Object
  NoSun,                                  !- Sun Exposure
  NoWind,                                 !- Wind Exposure
  ,                                       !- View Factor to Ground
  ,                                       !- Number of Vertices
  1.90569415042095, 1.90569415042095, 4,  !- X,Y,Z Vertex 1 {m}
  1.90569415042095, 1.90569415042095, 0,  !- X,Y,Z Vertex 2 {m}
  0, 1.90569415042095, 0,                 !- X,Y,Z Vertex 3 {m}
  0, 1.90569415042095, 4;                 !- X,Y,Z Vertex 4 {m}

OS:Surface,
  {769547d4-f7bb-4ace-8c65-2bb5db63d9e1}, !- Handle
  Surface 28,                             !- Name
  Wall,                                   !- Surface Type
  ,                                       !- Construction Name