
OS:Version,
  {04e1f6bc-237f-4203-bbe8-64a6674efaaf}, !- Handle
  0.10.0;                                 !- Version Identifier

OS:BuildingStory,
  {c21d35cc-9ab2-4440-a567-08d4faa70dd1}, !- Handle
  Story 1,                                !- Name
  0,                                      !- Nominal Z Coordinate {m}
  4,                                      !- Nominal Floor to Floor Height {m}
  ,                                       !- Default Construction Set Name
  ,                                       !- Default Schedule Set Name
  ;                                       !- Group Rendering Name

OS:Space,
  {257749f6-77b5-4d46-885b-262dd67aa0db}, !- Handle
  Story 1 West Perimeter Space,           !- Name
  ,                                       !- Space Type Name
  ,                                       !- Default Construction Set Name
  ,                                       !- Default Schedule Set Name
  -0,                                     !- Direction of Relative North {deg}
  0,                                      !- X Origin {m}
  0,                                      !- Y Origin {m}
  0,                                      !- Z Origin {m}
  {c21d35cc-9ab2-4440-a567-08d4faa70dd1}, !- Building Story Name
  {2d1184ed-eca7-4ce9-87c7-4091cce8c456}; !- Thermal Zone Name

OS:Surface,
  {dad1a5c4-5f7a-4529-a41f-266c83c92ba2}, !- Handle
  Surface 1,                              !- Name
  Floor,                                  !- Surface Type
  ,                                       !- Construction Name
  {257749f6-77b5-4d46-885b-262dd67aa0db}, !- Space Name
  Ground,                                 !- Outside Boundary Condition
  ,                                       !- Outside Boundary Condition Object
  NoSun,                                  !- Sun Exposure
  NoWind,                                 !- Wind Exposure
  ,                                       !- View Factor to Ground
  ,                                       !- Number of Vertices
  0, 0, 0,                                !- X,Y,Z Vertex 1 {m}
  0, 9.68245836551854, 0,                 !- X,Y,Z Vertex 2 {m}
  3, 6.68245836551854, 0,                 !- X,Y,Z Vertex 3 {m}
  3, 3, 0;                                !- X,Y,Z Vertex 4 {m}

OS:Surface,
  {d20820e9-0e42-4eab-b814-ca68dd2f0178}, !- Handle
  Surface 2,                              !- Name
  Wall,                                   !- Surface Type
  ,                                       !- Construction Name
  {257749f6-77b5-4d46-885b-262dd67aa0db}, !- Space Name
  Outdoors,                               !- Outside Boundary Condition
  ,                                       !- Outside Boundary Condition Object
  SunExposed,                             !- Sun Exposure
  WindExposed,                            !- Wind Exposure
  ,                                       !- View Factor to Ground
  ,                                       !- Number of Vertices
  0, 9.68245836551854, 4,                 !- X,Y,Z Vertex 1 {m}
  0, 9.68245836551854, 0,                 !- X,Y,Z Vertex 2 {m}
  0, 0, 0,                                !- X,Y,Z Vertex 3 {m}
  0, 0, 4;                                !- X,Y,Z Vertex 4 {m}

OS:Surface,
  {dbd80754-3597-4599-9395-bba3a7ba03aa}, !- Handle
  Surface 3,                              !- Name
  Wall,                                   !- Surface Type
  ,                                       !- Construction Name
  {257749f6-77b5-4d46-885b-262dd67aa0db}, !- Space Name
  Surface,                                !- Outside Boundary Condition
  {47fb41bd-3368-464b-9748-7f24d54ef903}, !- Outside Boundary Condition Object
  NoSun,                                  !- Sun Exposure
  NoWind,                                 !- Wind Exposure
  ,                                       !- View Factor to Ground
  ,                                       !- Number of Vertices
  3, 6.68245836551854, 4,                 !- X,Y,Z Vertex 1 {m}
  3, 6.68245836551854, 0,                 !- X,Y,Z Vertex 2 {m}
  0, 9.68245836551854, 0,                 !- X,Y,Z Vertex 3 {m}
  0, 9.68245836551854, 4;                 !- X,Y,Z Vertex 4 {m}

OS:Surface,
  {9be8a66e-2edd-48a0-8b2e-1854bd40dc05}, !- Handle
  Surface 4,                              !- Name
  Wall,                                   !- Surface Type
  ,                                       !- Construction Name
  {257749f6-77b5-4d46-885b-262dd67aa0db}, !- Space Name
  Surface,                                !- Outside Boundary Condition
  {caaf3250-33ab-41e3-95c8-1bc2b8b495ec}, !- Outside Boundary Condition Object
  NoSun,                                  !- Sun Exposure
  NoWind,                                 !- Wind Exposure
  ,                                       !- View Factor to Ground
  ,                                       !- Number of Vertices
  3, 3, 4,                                !- X,Y,Z Vertex 1 {m}
  3, 3, 0,                                !- X,Y,Z Vertex 2 {m}
  3, 6.68245836551854, 0,                 !- X,Y,Z Vertex 3 {m}
  3, 6.68245836551854, 4;                 !- X,Y,Z Vertex 4 {m}

OS:Surface,
  {7d960c55-bf8e-407c-923c-7bf79baeff8b}, !- Handle
  Surface 5,                              !- Name
  Wall,                                   !- Surface Type
  ,                                       !- Construction Name
  {257749f6-77b5-4d46-885b-262dd67aa0db}, !- Space Name
  Surface,                                !- Outside Boundary Condition
  {2c3bfe76-bdf0-47af-8e92-5c03e77b1efc}, !- Outside Boundary Condition Object
  NoSun,                                  !- Sun Exposure
  NoWind,                                 !- Wind Exposure
  ,                                       !- View Factor to Ground
  ,                                       !- Number of Vertices
  0, 0, 4,                                !- X,Y,Z Vertex 1 {m}
  0, 0, 0,                                !- X,Y,Z Vertex 2 {m}
  3, 3, 0,                                !- X,Y,Z Vertex 3 {m}
  3, 3, 4;                                !- X,Y,Z Vertex 4 {m}

OS:Surface,
  {79818378-6db4-4360-9213-f1237f67f176}, !- Handle
  Surface 6,                              !- Name
  RoofCeiling,                            !- Surface Type
  ,                                       !- Construction Name
  {257749f6-77b5-4d46-885b-262dd67aa0db}, !- Space Name
  Surface,                                !- Outside Boundary Condition
  {8df1aa98-0401-448c-b9a3-c537181a8c87}, !- Outside Boundary Condition Object
  NoSun,                                  !- Sun Exposure
  NoWind,                                 !- Wind Exposure
  ,                                       !- View Factor to Ground
  ,                                       !- Number of Vertices
  3, 3, 4,                                !- X,Y,Z Vertex 1 {m}
  3, 6.68245836551854, 4,                 !- X,Y,Z Vertex 2 {m}
  0, 9.68245836551854, 4,                 !- X,Y,Z Vertex 3 {m}
  0, 0, 4;                                !- X,Y,Z Vertex 4 {m}

OS:Space,
  {0a0f17a9-f9a8-4e2c-b14c-70ac0f85b51f}, !- Handle
  Story 1 North Perimeter Space,          !- Name
  ,                                       !- Space Type Name
  ,                                       !- Default Construction Set Name
  ,                                       !- Default Schedule Set Name
  -0,                                     !- Direction of Relative North {deg}
  3,                                      !- X Origin {m}
  6.68245836551854,                       !- Y Origin {m}
  0,                                      !- Z Origin {m}
  {c21d35cc-9ab2-4440-a567-08d4faa70dd1}, !- Building Story Name
  {60779d98-28f7-493f-8ae8-34b967fcfa35}; !- Thermal Zone Name

OS:Surface,
  {6871a080-047f-4eba-9e43-a3c77ef44eb5}, !- Handle
  Surface 7,                              !- Name
  Floor,                                  !- Surface Type
  ,                                       !- Construction Name
  {0a0f17a9-f9a8-4e2c-b14c-70ac0f85b51f}, !- Space Name
  Ground,                                 !- Outside Boundary Condition
  ,                                       !- Outside Boundary Condition Object
  NoSun,                                  !- Sun Exposure
  NoWind,                                 !- Wind Exposure
  ,                                       !- View Factor to Ground
  ,                                       !- Number of Vertices
  -3, 3, 0,                               !- X,Y,Z Vertex 1 {m}
  6.68245836551854, 3, 0,                 !- X,Y,Z Vertex 2 {m}
  3.68245836551854, -1.77635683940025e-15, 0, !- X,Y,Z Vertex 3 {m}
  0, -1.77635683940025e-15, 0;            !- X,Y,Z Vertex 4 {m}

OS:Surface,
  {ca58f036-2518-42cc-aa42-5d84d3c9a44c}, !- Handle
  Surface 8,                              !- Name
  Wall,                                   !- Surface Type
  ,                                       !- Construction Name
  {0a0f17a9-f9a8-4e2c-b14c-70ac0f85b51f}, !- Space Name
  Outdoors,                               !- Outside Boundary Condition
  ,                                       !- Outside Boundary Condition Object
  SunExposed,                             !- Sun Exposure
  WindExposed,                            !- Wind Exposure
  ,                                       !- View Factor to Ground
  ,                                       !- Number of Vertices
  6.68245836551854, 3, 4,                 !- X,Y,Z Vertex 1 {m}
  6.68245836551854, 3, 0,                 !- X,Y,Z Vertex 2 {m}
  -3, 3, 0,                               !- X,Y,Z Vertex 3 {m}
  -3, 3, 4;                               !- X,Y,Z Vertex 4 {m}

OS:Surface,
  {efdfac73-2e12-4b7d-860d-4da5b3e3e49f}, !- Handle
  Surface 9,                              !- Name
  Wall,                                   !- Surface Type
  ,                                       !- Construction Name
  {0a0f17a9-f9a8-4e2c-b14c-70ac0f85b51f}, !- Space Name
  Surface,                                !- Outside Boundary Condition
  {85636136-91d8-4d9d-9175-3bf40af641fa}, !- Outside Boundary Condition Object
  NoSun,                                  !- Sun Exposure
  NoWind,                                 !- Wind Exposure
  ,                                       !- View Factor to Ground
  ,                                       !- Number of Vertices
  3.68245836551854, -1.77635683940025e-15, 4, !- X,Y,Z Vertex 1 {m}
  3.68245836551854, -1.77635683940025e-15, 0, !- X,Y,Z Vertex 2 {m}
  6.68245836551854, 3, 0,                 !- X,Y,Z Vertex 3 {m}
  6.68245836551854, 3, 4;                 !- X,Y,Z Vertex 4 {m}

OS:Surface,
  {d7ff15fc-1a53-4e38-a453-cc78f1e28538}, !- Handle
  Surface 10,                             !- Name
  Wall,                                   !- Surface Type
  ,                                       !- Construction Name
  {0a0f17a9-f9a8-4e2c-b14c-70ac0f85b51f}, !- Space Name
  Surface,                                !- Outside Boundary Condition
  {e95e9e5c-b9ed-44a7-a8d5-c24ff02fa888}, !- Outside Boundary Condition Object
  NoSun,                                  !- Sun Exposure
  NoWind,                                 !- Wind Exposure
  ,                                       !- View Factor to Ground
  ,                                       !- Number of Vertices
  0, -1.77635683940025e-15, 4,            !- X,Y,Z Vertex 1 {m}
  0, -1.77635683940025e-15, 0,            !- X,Y,Z Vertex 2 {m}
  3.68245836551854, -1.77635683940025e-15, 0, !- X,Y,Z Vertex 3 {m}
  3.68245836551854, -1.77635683940025e-15, 4; !- X,Y,Z Vertex 4 {m}

OS:Surface,
  {47fb41bd-3368-464b-9748-7f24d54ef903}, !- Handle
  Surface 11,                             !- Name
  Wall,                                   !- Surface Type
  ,                                       !- Construction Name
  {0a0f17a9-f9a8-4e2c-b14c-70ac0f85b51f}, !- Space Name
  Surface,                                !- Outside Boundary Condition
  {dbd80754-3597-4599-9395-bba3a7ba03aa}, !- Outside Boundary Condition Object
  NoSun,                                  !- Sun Exposure
  NoWind,                                 !- Wind Exposure
  ,                                       !- View Factor to Ground
  ,                                       !- Number of Vertices
  -3, 3, 4,                               !- X,Y,Z Vertex 1 {m}
  -3, 3, 0,                               !- X,Y,Z Vertex 2 {m}
  0, -1.77635683940025e-15, 0,            !- X,Y,Z Vertex 3 {m}
  0, -1.77635683940025e-15, 4;            !- X,Y,Z Vertex 4 {m}

OS:Surface,
  {8e0f70b0-6df2-417e-8784-8f1ae13179a5}, !- Handle
  Surface 12,                             !- Name
  RoofCeiling,                            !- Surface Type
  ,                                       !- Construction Name
  {0a0f17a9-f9a8-4e2c-b14c-70ac0f85b51f}, !- Space Name
  Surface,                                !- Outside Boundary Condition
  {676b19f9-a1e8-46b9-82b9-188f46d47409}, !- Outside Boundary Condition Object
  NoSun,                                  !- Sun Exposure
  NoWind,                                 !- Wind Exposure
  ,                                       !- View Factor to Ground
  ,                                       !- Number of Vertices
  0, -1.77635683940025e-15, 4,            !- X,Y,Z Vertex 1 {m}
  3.68245836551854, -1.77635683940025e-15, 4, !- X,Y,Z Vertex 2 {m}
  6.68245836551854, 3, 4,                 !- X,Y,Z Vertex 3 {m}
  -3, 3, 4;                               !- X,Y,Z Vertex 4 {m}

OS:Space,
  {9a642b32-8d0f-4a54-901c-4633732b00af}, !- Handle
  Story 1 East Perimeter Space,           !- Name
  ,                                       !- Space Type Name
  ,                                       !- Default Construction Set Name
  ,                                       !- Default Schedule Set Name
  -0,                                     !- Direction of Relative North {deg}
  6.68245836551854,                       !- X Origin {m}
  3,                                      !- Y Origin {m}
  0,                                      !- Z Origin {m}
  {c21d35cc-9ab2-4440-a567-08d4faa70dd1}, !- Building Story Name
  {1da7ad35-7d09-40d9-9689-6a31c42f68e3}; !- Thermal Zone Name

OS:Surface,
  {47ec5b8b-cba4-46ab-a42a-bdeb3b9411b5}, !- Handle
  Surface 13,                             !- Name
  Floor,                                  !- Surface Type
  ,                                       !- Construction Name
  {9a642b32-8d0f-4a54-901c-4633732b00af}, !- Space Name
  Ground,                                 !- Outside Boundary Condition
  ,                                       !- Outside Boundary Condition Object
  NoSun,                                  !- Sun Exposure
  NoWind,                                 !- Wind Exposure
  ,                                       !- View Factor to Ground
  ,                                       !- Number of Vertices
  3, 6.68245836551854, 0,                 !- X,Y,Z Vertex 1 {m}
  3, -3, 0,                               !- X,Y,Z Vertex 2 {m}
  -1.77635683940025e-15, 0, 0,            !- X,Y,Z Vertex 3 {m}
  -1.77635683940025e-15, 3.68245836551854, 0; !- X,Y,Z Vertex 4 {m}

OS:Surface,
  {d78c3348-b9e6-4149-bf7c-b3b3443aea00}, !- Handle
  Surface 14,                             !- Name
  Wall,                                   !- Surface Type
  ,                                       !- Construction Name
  {9a642b32-8d0f-4a54-901c-4633732b00af}, !- Space Name
  Outdoors,                               !- Outside Boundary Condition
  ,                                       !- Outside Boundary Condition Object
  SunExposed,                             !- Sun Exposure
  WindExposed,                            !- Wind Exposure
  ,                                       !- View Factor to Ground
  ,                                       !- Number of Vertices
  3, -3, 4,                               !- X,Y,Z Vertex 1 {m}
  3, -3, 0,                               !- X,Y,Z Vertex 2 {m}
  3, 6.68245836551854, 0,                 !- X,Y,Z Vertex 3 {m}
  3, 6.68245836551854, 4;                 !- X,Y,Z Vertex 4 {m}

OS:Surface,
  {810cf497-1baf-474b-9a18-b6b68004779e}, !- Handle
  Surface 15,                             !- Name
  Wall,                                   !- Surface Type
  ,                                       !- Construction Name
  {9a642b32-8d0f-4a54-901c-4633732b00af}, !- Space Name
  Surface,                                !- Outside Boundary Condition
  {2005fe56-9d0c-47bc-a83d-cf8169accc35}, !- Outside Boundary Condition Object
  NoSun,                                  !- Sun Exposure
  NoWind,                                 !- Wind Exposure
  ,                                       !- View Factor to Ground
  ,                                       !- Number of Vertices
  -1.77635683940025e-15, 0, 4,            !- X,Y,Z Vertex 1 {m}
  -1.77635683940025e-15, 0, 0,            !- X,Y,Z Vertex 2 {m}
  3, -3, 0,                               !- X,Y,Z Vertex 3 {m}
  3, -3, 4;                               !- X,Y,Z Vertex 4 {m}

OS:Surface,
  {9db32a62-ca0e-4e78-b381-9669fee5bdc1}, !- Handle
  Surface 16,                             !- Name
  Wall,                                   !- Surface Type
  ,                                       !- Construction Name
  {9a642b32-8d0f-4a54-901c-4633732b00af}, !- Space Name
  Surface,                                !- Outside Boundary Condition
  {f02d3b91-8b54-40c5-bf79-9dae33321635}, !- Outside Boundary Condition Object
  NoSun,                                  !- Sun Exposure
  NoWind,                                 !- Wind Exposure
  ,                                       !- View Factor to Ground
  ,                                       !- Number of Vertices
  -1.77635683940025e-15, 3.68245836551854, 4, !- X,Y,Z Vertex 1 {m}
  -1.77635683940025e-15, 3.68245836551854, 0, !- X,Y,Z Vertex 2 {m}
  -1.77635683940025e-15, 0, 0,            !- X,Y,Z Vertex 3 {m}
  -1.77635683940025e-15, 0, 4;            !- X,Y,Z Vertex 4 {m}

OS:Surface,
  {85636136-91d8-4d9d-9175-3bf40af641fa}, !- Handle
  Surface 17,                             !- Name
  Wall,                                   !- Surface Type
  ,                                       !- Construction Name
  {9a642b32-8d0f-4a54-901c-4633732b00af}, !- Space Name
  Surface,                                !- Outside Boundary Condition
  {efdfac73-2e12-4b7d-860d-4da5b3e3e49f}, !- Outside Boundary Condition Object
  NoSun,                                  !- Sun Exposure
  NoWind,                                 !- Wind Exposure
  ,                                       !- View Factor to Ground
  ,                                       !- Number of Vertices
  3, 6.68245836551854, 4,                 !- X,Y,Z Vertex 1 {m}
  3, 6.68245836551854, 0,                 !- X,Y,Z Vertex 2 {m}
  -1.77635683940025e-15, 3.68245836551854, 0, !- X,Y,Z Vertex 3 {m}
  -1.77635683940025e-15, 3.68245836551854, 4; !- X,Y,Z Vertex 4 {m}

OS:Surface,
  {798f2e13-8888-403d-8367-3b63256a5ca2}, !- Handle
  Surface 18,                             !- Name
  RoofCeiling,                            !- Surface Type
  ,                                       !- Construction Name
  {9a642b32-8d0f-4a54-901c-4633732b00af}, !- Space Name
  Surface,                                !- Outside Boundary Condition
  {d87be633-b5be-400a-8e9f-087242be004e}, !- Outside Boundary Condition Object
  NoSun,                                  !- Sun Exposure
  NoWind,                                 !- Wind Exposure
  ,                                       !- View Factor to Ground
  ,                                       !- Number of Vertices
  -1.77635683940025e-15, 3.68245836551854, 4, !- X,Y,Z Vertex 1 {m}
  -1.77635683940025e-15, 0, 4,            !- X,Y,Z Vertex 2 {m}
  3, -3, 4,                               !- X,Y,Z Vertex 3 {m}
  3, 6.68245836551854, 4;                 !- X,Y,Z Vertex 4 {m}

OS:Space,
  {26764519-f7a0-4257-881e-9e7ddd3109b7}, !- Handle
  Story 1 South Perimeter Space,          !- Name
  ,                                       !- Space Type Name
  ,                                       !- Default Construction Set Name
  ,                                       !- Default Schedule Set Name
  -0,                                     !- Direction of Relative North {deg}
  0,                                      !- X Origin {m}
  0,                                      !- Y Origin {m}
  0,                                      !- Z Origin {m}
  {c21d35cc-9ab2-4440-a567-08d4faa70dd1}, !- Building Story Name
  {3d1048b2-283b-4787-ac33-6cf951ad8cea}; !- Thermal Zone Name

OS:Surface,
  {568c0b26-fc0e-44fb-a4e9-0bb63f6bb78c}, !- Handle
  Surface 19,                             !- Name
  Floor,                                  !- Surface Type
  ,                                       !- Construction Name
  {26764519-f7a0-4257-881e-9e7ddd3109b7}, !- Space Name
  Ground,                                 !- Outside Boundary Condition
  ,                                       !- Outside Boundary Condition Object
  NoSun,                                  !- Sun Exposure
  NoWind,                                 !- Wind Exposure
  ,                                       !- View Factor to Ground
  ,                                       !- Number of Vertices
  9.68245836551854, 0, 0,                 !- X,Y,Z Vertex 1 {m}
  0, 0, 0,                                !- X,Y,Z Vertex 2 {m}
  3, 3, 0,                                !- X,Y,Z Vertex 3 {m}
  6.68245836551854, 3, 0;                 !- X,Y,Z Vertex 4 {m}

OS:Surface,
  {3d329c2a-0282-400b-b14b-a201923e6af6}, !- Handle
  Surface 20,                             !- Name
  Wall,                                   !- Surface Type
  ,                                       !- Construction Name
  {26764519-f7a0-4257-881e-9e7ddd3109b7}, !- Space Name
  Outdoors,                               !- Outside Boundary Condition
  ,                                       !- Outside Boundary Condition Object
  SunExposed,                             !- Sun Exposure
  WindExposed,                            !- Wind Exposure
  ,                                       !- View Factor to Ground
  ,                                       !- Number of Vertices
  0, 0, 4,                                !- X,Y,Z Vertex 1 {m}
  0, 0, 0,                                !- X,Y,Z Vertex 2 {m}
  9.68245836551854, 0, 0,                 !- X,Y,Z Vertex 3 {m}
  9.68245836551854, 0, 4;                 !- X,Y,Z Vertex 4 {m}

OS:Surface,
  {2c3bfe76-bdf0-47af-8e92-5c03e77b1efc}, !- Handle
  Surface 21,                             !- Name
  Wall,                                   !- Surface Type
  ,                                       !- Construction Name
  {26764519-f7a0-4257-881e-9e7ddd3109b7}, !- Space Name
  Surface,                                !- Outside Boundary Condition
  {7d960c55-bf8e-407c-923c-7bf79baeff8b}, !- Outside Boundary Condition Object
  NoSun,                                  !- Sun Exposure
  NoWind,                                 !- Wind Exposure
  ,                                       !- View Factor to Ground
  ,                                       !- Number of Vertices
  3, 3, 4,                                !- X,Y,Z Vertex 1 {m}
  3, 3, 0,                                !- X,Y,Z Vertex 2 {m}
  0, 0, 0,                                !- X,Y,Z Vertex 3 {m}
  0, 0, 4;                                !- X,Y,Z Vertex 4 {m}

OS:Surface,
  {2512d924-f85b-4ea1-94f6-77c95d072704}, !- Handle
  Surface 22,                             !- Name
  Wall,                                   !- Surface Type
  ,                                       !- Construction Name
  {26764519-f7a0-4257-881e-9e7ddd3109b7}, !- Space Name
  Surface,                                !- Outside Boundary Condition
  {7ddf0b91-6b0d-40aa-84e4-511a37fe9bbc}, !- Outside Boundary Condition Object
  NoSun,                                  !- Sun Exposure
  NoWind,                                 !- Wind Exposure
  ,                                       !- View Factor to Ground
  ,                                       !- Number of Vertices
  6.68245836551854, 3, 4,                 !- X,Y,Z Vertex 1 {m}
  6.68245836551854, 3, 0,                 !- X,Y,Z Vertex 2 {m}
  3, 3, 0,                                !- X,Y,Z Vertex 3 {m}
  3, 3, 4;                                !- X,Y,Z Vertex 4 {m}

OS:Surface,
  {2005fe56-9d0c-47bc-a83d-cf8169accc35}, !- Handle
  Surface 23,                             !- Name
  Wall,                                   !- Surface Type
  ,                                       !- Construction Name
  {26764519-f7a0-4257-881e-9e7ddd3109b7}, !- Space Name
  Surface,                                !- Outside Boundary Condition
  {810cf497-1baf-474b-9a18-b6b68004779e}, !- Outside Boundary Condition Object
  NoSun,                                  !- Sun Exposure
  NoWind,                                 !- Wind Exposure
  ,                                       !- View Factor to Ground
  ,                                       !- Number of Vertices
  9.68245836551854, 0, 4,                 !- X,Y,Z Vertex 1 {m}
  9.68245836551854, 0, 0,                 !- X,Y,Z Vertex 2 {m}
  6.68245836551854, 3, 0,                 !- X,Y,Z Vertex 3 {m}
  6.68245836551854, 3, 4;                 !- X,Y,Z Vertex 4 {m}

OS:Surface,
  {1caab0f6-8cea-44dd-b106-c4a8e6dca8ae}, !- Handle
  Surface 24,                             !- Name
  RoofCeiling,                            !- Surface Type
  ,                                       !- Construction Name
  {26764519-f7a0-4257-881e-9e7ddd3109b7}, !- Space Name
  Surface,                                !- Outside Boundary Condition
  {bbb180a3-1747-4610-9c07-eb1c76c33a66}, !- Outside Boundary Condition Object
  NoSun,                                  !- Sun Exposure
  NoWind,                                 !- Wind Exposure
  ,                                       !- View Factor to Ground
  ,                                       !- Number of Vertices
  6.68245836551854, 3, 4,                 !- X,Y,Z Vertex 1 {m}
  3, 3, 4,                                !- X,Y,Z Vertex 2 {m}
  0, 0, 4,                                !- X,Y,Z Vertex 3 {m}
  9.68245836551854, 0, 4;                 !- X,Y,Z Vertex 4 {m}

OS:Space,
  {6017d575-75ad-4c59-aa2c-6699bc098950}, !- Handle
  Story 1 Core Space,                     !- Name
  ,                                       !- Space Type Name
  ,                                       !- Default Construction Set Name
  ,                                       !- Default Schedule Set Name
  -0,                                     !- Direction of Relative North {deg}
  3,                                      !- X Origin {m}
  3,                                      !- Y Origin {m}
  0,                                      !- Z Origin {m}
  {c21d35cc-9ab2-4440-a567-08d4faa70dd1}, !- Building Story Name
  {fca5545a-96e5-4248-b1f6-0ea388cd38fd}; !- Thermal Zone Name

OS:Surface,
  {8d4ddcac-64c5-4969-afd0-bb441960c563}, !- Handle
  Surface 25,                             !- Name
  Floor,                                  !- Surface Type
  ,                                       !- Construction Name
  {6017d575-75ad-4c59-aa2c-6699bc098950}, !- Space Name
  Ground,                                 !- Outside Boundary Condition
  ,                                       !- Outside Boundary Condition Object
  NoSun,                                  !- Sun Exposure
  NoWind,                                 !- Wind Exposure
  ,                                       !- View Factor to Ground
  ,                                       !- Number of Vertices
  0, 0, 0,                                !- X,Y,Z Vertex 1 {m}
  0, 3.68245836551854, 0,                 !- X,Y,Z Vertex 2 {m}
  3.68245836551854, 3.68245836551854, 0,  !- X,Y,Z Vertex 3 {m}
  3.68245836551854, 0, 0;                 !- X,Y,Z Vertex 4 {m}

OS:Surface,
  {caaf3250-33ab-41e3-95c8-1bc2b8b495ec}, !- Handle
  Surface 26,                             !- Name
  Wall,                                   !- Surface Type
  ,                                       !- Construction Name
  {6017d575-75ad-4c59-aa2c-6699bc098950}, !- Space Name
  Surface,                                !- Outside Boundary Condition
  {9be8a66e-2edd-48a0-8b2e-1854bd40dc05}, !- Outside Boundary Condition Object
  NoSun,                                  !- Sun Exposure
  NoWind,                                 !- Wind Exposure
  ,                                       !- View Factor to Ground
  ,                                       !- Number of Vertices
  0, 3.68245836551854, 4,                 !- X,Y,Z Vertex 1 {m}
  0, 3.68245836551854, 0,                 !- X,Y,Z Vertex 2 {m}
  0, 0, 0,                                !- X,Y,Z Vertex 3 {m}
  0, 0, 4;                                !- X,Y,Z Vertex 4 {m}

OS:Surface,
  {e95e9e5c-b9ed-44a7-a8d5-c24ff02fa888}, !- Handle
  Surface 27,                             !- Name
  Wall,                                   !- Surface Type
  ,                                       !- Construction Name
  {6017d575-75ad-4c59-aa2c-6699bc098950}, !- Space Name
  Surface,                                !- Outside Boundary Condition
  {d7ff15fc-1a53-4e38-a453-cc78f1e28538}, !- Outside Boundary Condition Object
  NoSun,                                  !- Sun Exposure
  NoWind,                                 !- Wind Exposure
  ,                                       !- View Factor to Ground
  ,                                       !- Number of Vertices
  3.68245836551854, 3.68245836551854, 4,  !- X,Y,Z Vertex 1 {m}
  3.68245836551854, 3.68245836551854, 0,  !- X,Y,Z Vertex 2 {m}
  0, 3.68245836551854, 0,                 !- X,Y,Z Vertex 3 {m}
  0, 3.68245836551854, 4;                 !- X,Y,Z Vertex 4 {m}

OS:Surface,
  {f02d3b91-8b54-40c5-bf79-9dae33321635}, !- Handle
  Surface 28,                             !- Name
  Wall,                                   !- Surface Type
  ,                                       !- Construction Name