
OS:Version,
  {f09dcd0d-35d2-43ba-8ab8-213b7a4bf600}, !- Handle
  0.10.0;                                 !- Version Identifier

OS:BuildingStory,
  {88fc9c5f-37d2-4016-8646-db0500249ec6}, !- Handle
  Story 1,                                !- Name
  0,                                      !- Nominal Z Coordinate {m}
  4,                                      !- Nominal Floor to Floor Height {m}
  ,                                       !- Default Construction Set Name
  ,                                       !- Default Schedule Set Name
  ;                                       !- Group Rendering Name

OS:Space,
  {c29eb734-2736-4e7c-93cc-01564d157201}, !- Handle
  Story 1 West Perimeter Space,           !- Name
  ,                                       !- Space Type Name
  ,                                       !- Default Construction Set Name
  ,                                       !- Default Schedule Set Name
  -0,                                     !- Direction of Relative North {deg}
  0,                                      !- X Origin {m}
  0,                                      !- Y Origin {m}
  0,                                      !- Z Origin {m}
  {88fc9c5f-37d2-4016-8646-db0500249ec6}, !- Building Story Name
  {a7befebe-7800-41b0-b35f-beaaf9b10943}; !- Thermal Zone Name

OS:Surface,
  {4313cbbf-ddf5-4c8e-a76a-3b4d9025bbc3}, !- Handle
  Surface 1,                              !- Name
  Floor,                                  !- Surface Type
  ,                                       !- Construction Name
  {c29eb734-2736-4e7c-93cc-01564d157201}, !- Space Name
  Ground,                                 !- Outside Boundary Condition
  ,                                       !- Outside Boundary Condition Object
  NoSun,                                  !- Sun Exposure
  NoWind,                                 !- Wind Exposure
  ,                                       !- View Factor to Ground
  ,                                       !- Number of Vertices
  0, 0, 0,                                !- X,Y,Z Vertex 1 {m}
  0, 23.2379000772445, 0,                 !- X,Y,Z Vertex 2 {m}
  3, 20.2379000772445, 0,                 !- X,Y,Z Vertex 3 {m}
  3, 3, 0;                                !- X,Y,Z Vertex 4 {m}

OS:Surface,
  {9bb95643-dfb9-4ef9-bb1e-f7ace7ad8c6c}, !- Handle
  Surface 2,                              !- Name
  Wall,                                   !- Surface Type
  ,                                       !- Construction Name
  {c29eb734-2736-4e7c-93cc-01564d157201}, !- Space Name
  Outdoors,                               !- Outside Boundary Condition
  ,                                       !- Outside Boundary Condition Object
  SunExposed,                             !- Sun Exposure
  WindExposed,                            !- Wind Exposure
  ,                                       !- View Factor to Ground
  ,                                       !- Number of Vertices
  0, 23.2379000772445, 4,                 !- X,Y,Z Vertex 1 {m}
  0, 23.2379000772445, 0,                 !- X,Y,Z Vertex 2 {m}
  0, 0, 0,                                !- X,Y,Z Vertex 3 {m}
  0, 0, 4;                                !- X,Y,Z Vertex 4 {m}

OS:Surface,
  {101d645c-9a08-4099-8638-07f2e6ec74e7}, !- Handle
  Surface 3,                              !- Name
  Wall,                                   !- Surface Type
  ,                                       !- Construction Name
  {c29eb734-2736-4e7c-93cc-01564d157201}, !- Space Name
  Surface,                                !- Outside Boundary Condition
  {460a5d9a-8ef5-4f4f-a15c-d8a00ab8101c}, !- Outside Boundary Condition Object
  NoSun,                                  !- Sun Exposure
  NoWind,                                 !- Wind Exposure
  ,                                       !- View Factor to Ground
  ,                                       !- Number of Vertices
  3, 20.2379000772445, 4,                 !- X,Y,Z Vertex 1 {m}
  3, 20.2379000772445, 0,                 !- X,Y,Z Vertex 2 {m}
  0, 23.2379000772445, 0,                 !- X,Y,Z Vertex 3 {m}
  0, 23.2379000772445, 4;                 !- X,Y,Z Vertex 4 {m}

OS:Surface,
  {05f24c0d-7170-42fc-b251-c05fe41bdc71}, !- Handle
  Surface 4,                              !- Name
  Wall,                                   !- Surface Type
  ,                                       !- Construction Name
  {c29eb734-2736-4e7c-93cc-01564d157201}, !- Space Name
  Surface,                                !- Outside Boundary Condition
  {79c8bfd1-8535-42c7-8135-0b72209eec83}, !- Outside Boundary Condition Object
  NoSun,                                  !- Sun Exposure
  NoWind,                                 !- Wind Exposure
  ,                                       !- View Factor to Ground
  ,                                       !- Number of Vertices
  3, 3, 4,                                !- X,Y,Z Vertex 1 {m}
  3, 3, 0,                                !- X,Y,Z Vertex 2 {m}
  3, 20.2379000772445, 0,                 !- X,Y,Z Vertex 3 {m}
  3, 20.2379000772445, 4;                 !- X,Y,Z Vertex 4 {m}

OS:Surface,
  {e9218446-260a-4edd-b920-bd2c6d1b60de}, !- Handle
  Surface 5,                              !- Name
  Wall,                                   !- Surface Type
  ,                                       !- Construction Name
  {c29eb734-2736-4e7c-93cc-01564d157201}, !- Space Name
  Surface,                                !- Outside Boundary Condition
  {30fb19bd-162b-453b-8f72-aad31a5383d2}, !- Outside Boundary Condition Object
  NoSun,                                  !- Sun Exposure
  NoWind,                                 !- Wind Exposure
  ,                                       !- View Factor to Ground
  ,                                       !- Number of Vertices
  0, 0, 4,                                !- X,Y,Z Vertex 1 {m}
  0, 0, 0,                                !- X,Y,Z Vertex 2 {m}
  3, 3, 0,                                !- X,Y,Z Vertex 3 {m}
  3, 3, 4;                                !- X,Y,Z Vertex 4 {m}

OS:Surface,
  {a90a25ac-c8a8-4b7c-9e11-fc58921110c4}, !- Handle
  Surface 6,                              !- Name
  RoofCeiling,                            !- Surface Type
  ,                                       !- Construction Name
  {c29eb734-2736-4e7c-93cc-01564d157201}, !- Space Name
  Outdoors,                               !- Outside Boundary Condition
  ,                                       !- Outside Boundary Condition Object
  SunExposed,                             !- Sun Exposure
  WindExposed,                            !- Wind Exposure
  ,                                       !- View Factor to Ground
  ,                                       !- Number of Vertices
  3, 3, 4,                                !- X,Y,Z Vertex 1 {m}
  3, 20.2379000772445, 4,                 !- X,Y,Z Vertex 2 {m}
  0, 23.2379000772445, 4,                 !- X,Y,Z Vertex 3 {m}
  0, 0, 4;                                !- X,Y,Z Vertex 4 {m}

OS:Space,
  {4d71e685-a8a8-47ec-9b60-59cf528bcbf4}, !- Handle
  Story 1 North Perimeter Space,          !- Name
  ,                                       !- Space Type Name
  ,                                       !- Default Construction Set Name
  ,                                       !- Default Schedule Set Name
  -0,                                     !- Direction of Relative North {deg}
  3,                                      !- X Origin {m}
  20.2379000772445,                       !- Y Origin {m}
  0,                                      !- Z Origin {m}
  {88fc9c5f-37d2-4016-8646-db0500249ec6}, !- Building Story Name
  {d9ccbdab-f1b4-4029-9917-8941fb7db9d8}; !- Thermal Zone Name

OS:Surface,
  {6895899b-cb9b-415f-865b-a0852b5380d2}, !- Handle
  Surface 7,                              !- Name
  Floor,                                  !- Surface Type
  ,                                       !- Construction Name
  {4d71e685-a8a8-47ec-9b60-59cf528bcbf4}, !- Space Name
  Ground,                                 !- Outside Boundary Condition
  ,                                       !- Outside Boundary Condition Object
  NoSun,                                  !- Sun Exposure
  NoWind,                                 !- Wind Exposure
  ,                                       !- View Factor to Ground
  ,                                       !- Number of Vertices
  -3, 3, 0,                               !- X,Y,Z Vertex 1 {m}
  20.2379000772445, 3, 0,                 !- X,Y,Z Vertex 2 {m}
  17.2379000772445, 0, 0,                 !- X,Y,Z Vertex 3 {m}
  0, 0, 0;                                !- X,Y,Z Vertex 4 {m}

OS:Surface,
  {fbd3d6f6-109a-485b-a951-d8e815e9655f}, !- Handle
  Surface 8,                              !- Name
  Wall,                                   !- Surface Type
  ,                                       !- Construction Name
  {4d71e685-a8a8-47ec-9b60-59cf528bcbf4}, !- Space Name
  Outdoors,                               !- Outside Boundary Condition
  ,                                       !- Outside Boundary Condition Object
  SunExposed,                             !- Sun Exposure
  WindExposed,                            !- Wind Exposure
  ,                                       !- View Factor to Ground
  ,                                       !- Number of Vertices
  20.2379000772445, 3, 4,                 !- X,Y,Z Vertex 1 {m}
  20.2379000772445, 3, 0,                 !- X,Y,Z Vertex 2 {m}
  -3, 3, 0,                               !- X,Y,Z Vertex 3 {m}
  -3, 3, 4;                               !- X,Y,Z Vertex 4 {m}

OS:Surface,
  {14cda540-a2e3-44db-b491-76fadd540f90}, !- Handle
  Surface 9,                              !- Name
  Wall,                                   !- Surface Type
  ,                                       !- Construction Name
  {4d71e685-a8a8-47ec-9b60-59cf528bcbf4}, !- Space Name
  Surface,                                !- Outside Boundary Condition
  {3f641bb9-6cdb-42ac-9c00-251c4341d197}, !- Outside Boundary Condition Object
  NoSun,                                  !- Sun Exposure
  NoWind,                                 !- Wind Exposure
  ,                                       !- View Factor to Ground
  ,                                       !- Number of Vertices
  17.2379000772445, 0, 4,                 !- X,Y,Z Vertex 1 {m}
  17.2379000772445, 0, 0,                 !- X,Y,Z Vertex 2 {m}
  20.2379000772445, 3, 0,                 !- X,Y,Z Vertex 3 {m}
  20.2379000772445, 3, 4;                 !- X,Y,Z Vertex 4 {m}

OS:Surface,
  {ef9a6536-0b7a-4ef7-a320-eecf57f16da5}, !- Handle
  Surface 10,                             !- Name
  Wall,                                   !- Surface Type
  ,                                       !- Construction Name
  {4d71e685-a8a8-47ec-9b60-59cf528bcbf4}, !- Space Name
  Surface,                                !- Outside Boundary Condition
  {11d29990-6251-486f-b0bf-d6953e724845}, !- Outside Boundary Condition Object
  NoSun,                                  !- Sun Exposure
  NoWind,                                 !- Wind Exposure
  ,                                       !- View Factor to Ground
  ,                                       !- Number of Vertices
  0, 0, 4,                                !- X,Y,Z Vertex 1 {m}
  0, 0, 0,                                !- X,Y,Z Vertex 2 {m}
  17.2379000772445, 0, 0,                 !- X,Y,Z Vertex 3 {m}
  17.2379000772445, 0, 4;                 !- X,Y,Z Vertex 4 {m}

OS:Surface,
  {460a5d9a-8ef5-4f4f-a15c-d8a00ab8101c}, !- Handle
  Surface 11,                             !- Name
  Wall,                                   !- Surface Type
  ,                                       !- Construction Name
  {4d71e685-a8a8-47ec-9b60-59cf528bcbf4}, !- Space Name
  Surface,                                !- Outside Boundary Condition
  {101d645c-9a08-4099-8638-07f2e6ec74e7}, !- Outside Boundary Condition Object
  NoSun,                                  !- Sun Exposure
  NoWind,                                 !- Wind Exposure
  ,                                       !- View Factor to Ground
  ,                                       !- Number of Vertices
  -3, 3, 4,                               !- X,Y,Z Vertex 1 {m}
  -3, 3, 0,                               !- X,Y,Z Vertex 2 {m}
  0, 0, 0,                                !- X,Y,Z Vertex 3 {m}
  0, 0, 4;                                !- X,Y,Z Vertex 4 {m}

OS:Surface,
  {046f8d61-c6e0-4254-a5d7-72f53607e3ff}, !- Handle
  Surface 12,                             !- Name
  RoofCeiling,                            !- Surface Type
  ,                                       !- Construction Name
  {4d71e685-a8a8-47ec-9b60-59cf528bcbf4}, !- Space Name
  Outdoors,                               !- Outside Boundary Condition
  ,                                       !- Outside Boundary Condition Object
  SunExposed,                             !- Sun Exposure
  WindExposed,                            !- Wind Exposure
  ,                                       !- View Factor to Ground
  ,                                       !- Number of Vertices
  0, 0, 4,                                !- X,Y,Z Vertex 1 {m}
  17.2379000772445, 0, 4,                 !- X,Y,Z Vertex 2 {m}
  20.2379000772445, 3, 4,                 !- X,Y,Z Vertex 3 {m}
  -3, 3, 4;                               !- X,Y,Z Vertex 4 {m}

OS:Space,
  {07d01722-765e-4255-a90c-b7337511595f}, !- Handle
  Story 1 East Perimeter Space,           !- Name
  ,                                       !- Space Type Name
  ,                                       !- Default Construction Set Name
  ,                                       !- Default Schedule Set Name
  -0,                                     !- Direction of Relative North {deg}
  20.2379000772445,                       !- X Origin {m}
  3,                                      !- Y Origin {m}
  0,                                      !- Z Origin {m}
  {88fc9c5f-37d2-4016-8646-db0500249ec6}, !- Building Story Name
  {59ec48ae-a02f-4e3f-b4cd-73e5c9dc6a65}; !- Thermal Zone Name

OS:Surface,
  {0601d815-b369-4179-8118-d184620fb561}, !- Handle
  Surface 13,                             !- Name
  Floor,                                  !- Surface Type
  ,                                       !- Construction Name
  {07d01722-765e-4255-a90c-b7337511595f}, !- Space Name
  Ground,                                 !- Outside Boundary Condition
  ,                                       !- Outside Boundary Condition Object
  NoSun,                                  !- Sun Exposure
  NoWind,                                 !- Wind Exposure
  ,                                       !- View Factor to Ground
  ,                                       !- Number of Vertices
  3, 20.2379000772445, 0,                 !- X,Y,Z Vertex 1 {m}
  3, -3, 0,                               !- X,Y,Z Vertex 2 {m}
  0, 0, 0,                                !- X,Y,Z Vertex 3 {m}
  0, 17.2379000772445, 0;                 !- X,Y,Z Vertex 4 {m}

OS:Surface,
  {bd084004-925d-470c-b336-168b11b97d1a}, !- Handle
  Surface 14,                             !- Name
  Wall,                                   !- Surface Type
  ,                                       !- Construction Name
  {07d01722-765e-4255-a90c-b7337511595f}, !- Space Name
  Outdoors,                               !- Outside Boundary Condition
  ,                                       !- Outside Boundary Condition Object
  SunExposed,                             !- Sun Exposure
  WindExposed,                            !- Wind Exposure
  ,                                       !- View Factor to Ground
  ,                                       !- Number of Vertices
  3, -3, 4,                               !- X,Y,Z Vertex 1 {m}
  3, -3, 0,                               !- X,Y,Z Vertex 2 {m}
  3, 20.2379000772445, 0,                 !- X,Y,Z Vertex 3 {m}
  3, 20.2379000772445, 4;                 !- X,Y,Z Vertex 4 {m}

OS:Surface,
  {200cc524-6671-4f72-a214-6da6a4cc74e8}, !- Handle
  Surface 15,                             !- Name
  Wall,                                   !- Surface Type
  ,                                       !- Construction Name
  {07d01722-765e-4255-a90c-b7337511595f}, !- Space Name
  Surface,                                !- Outside Boundary Condition
  {0c91904a-a443-4b6e-a1e3-e12b95a5f758}, !- Outside Boundary Condition Object
  NoSun,                                  !- Sun Exposure
  NoWind,                                 !- Wind Exposure
  ,                                       !- View Factor to Ground
  ,                                       !- Number of Vertices
  0, 0, 4,                                !- X,Y,Z Vertex 1 {m}
  0, 0, 0,                                !- X,Y,Z Vertex 2 {m}
  3, -3, 0,                               !- X,Y,Z Vertex 3 {m}
  3, -3, 4;                               !- X,Y,Z Vertex 4 {m}

OS:Surface,
  {72ce7079-8197-417b-9d76-5895c4f156c3}, !- Handle
  Surface 16,                             !- Name
  Wall,                                   !- Surface Type
  ,                                       !- Construction Name
  {07d01722-765e-4255-a90c-b7337511595f}, !- Space Name
  Surface,                                !- Outside Boundary Condition
  {07a4941f-ea36-4ee8-af80-5481be1bcde0}, !- Outside Boundary Condition Object
  NoSun,                                  !- Sun Exposure
  NoWind,                                 !- Wind Exposure
  ,                                       !- View Factor to Ground
  ,                                       !- Number of Vertices
  0, 17.2379000772445, 4,                 !- X,Y,Z Vertex 1 {m}
  0, 17.2379000772445, 0,                 !- X,Y,Z Vertex 2 {m}
  0, 0, 0,                                !- X,Y,Z Vertex 3 {m}
  0, 0, 4;                                !- X,Y,Z Vertex 4 {m}

OS:Surface,
  {3f641bb9-6cdb-42ac-9c00-251c4341d197}, !- Handle
  Surface 17,                             !- Name
  Wall,                                   !- Surface Type
  ,                                       !- Construction Name
  {07d01722-765e-4255-a90c-b7337511595f}, !- Space Name
  Surface,                                !- Outside Boundary Condition
  {14cda540-a2e3-44db-b491-76fadd540f90}, !- Outside Boundary Condition Object
  NoSun,                                  !- Sun Exposure
  NoWind,                                 !- Wind Exposure
  ,                                       !- View Factor to Ground
  ,                                       !- Number of Vertices
  3, 20.2379000772445, 4,                 !- X,Y,Z Vertex 1 {m}
  3, 20.2379000772445, 0,                 !- X,Y,Z Vertex 2 {m}
  0, 17.2379000772445, 0,                 !- X,Y,Z Vertex 3 {m}
  0, 17.2379000772445, 4;                 !- X,Y,Z Vertex 4 {m}

OS:Surface,
  {77f3f4ed-8c9b-455b-a0ee-b92250c97c7e}, !- Handle
  Surface 18,                             !- Name
  RoofCeiling,                            !- Surface Type
  ,                                       !- Construction Name
  {07d01722-765e-4255-a90c-b7337511595f}, !- Space Name
  Outdoors,                               !- Outside Boundary Condition
  ,                                       !- Outside Boundary Condition Object
  SunExposed,                             !- Sun Exposure
  WindExposed,                            !- Wind Exposure
  ,                                       !- View Factor to Ground
  ,                                       !- Number of Vertices
  0, 17.2379000772445, 4,                 !- X,Y,Z Vertex 1 {m}
  0, 0, 4,                                !- X,Y,Z Vertex 2 {m}
  3, -3, 4,                               !- X,Y,Z Vertex 3 {m}
  3, 20.2379000772445, 4;                 !- X,Y,Z Vertex 4 {m}

OS:Space,
  {090ff6a2-fdde-4037-8e3b-f10d1c4844d5}, !- Handle
  Story 1 South Perimeter Space,          !- Name
  ,                                       !- Space Type Name
  ,                                       !- Default Construction Set Name
  ,                                       !- Default Schedule Set Name
  -0,                                     !- Direction of Relative North {deg}
  0,                                      !- X Origin {m}
  0,                                      !- Y Origin {m}
  0,                                      !- Z Origin {m}
  {88fc9c5f-37d2-4016-8646-db0500249ec6}, !- Building Story Name
  {60eab1a1-57e6-40ec-8bb0-b3504a85d096}; !- Thermal Zone Name

OS:Surface,
  {bc7dfacf-7286-4f21-ada1-545b12fa12db}, !- Handle
  Surface 19,                             !- Name
  Floor,                                  !- Surface Type
  ,                                       !- Construction Name
  {090ff6a2-fdde-4037-8e3b-f10d1c4844d5}, !- Space Name
  Ground,                                 !- Outside Boundary Condition
  ,                                       !- Outside Boundary Condition Object
  NoSun,                                  !- Sun Exposure
  NoWind,                                 !- Wind Exposure
  ,                                       !- View Factor to Ground
  ,                                       !- Number of Vertices
  23.2379000772445, 0, 0,                 !- X,Y,Z Vertex 1 {m}
  0, 0, 0,                                !- X,Y,Z Vertex 2 {m}
  3, 3, 0,                                !- X,Y,Z Vertex 3 {m}
  20.2379000772445, 3, 0;                 !- X,Y,Z Vertex 4 {m}

OS:Surface,
  {0c2a5aee-a45f-4b7f-83cd-c1768ead20ee}, !- Handle
  Surface 20,                             !- Name
  Wall,                                   !- Surface Type
  ,                                       !- Construction Name
  {090ff6a2-fdde-4037-8e3b-f10d1c4844d5}, !- Space Name
  Outdoors,                               !- Outside Boundary Condition
  ,                                       !- Outside Boundary Condition Object
  SunExposed,                             !- Sun Exposure
  WindExposed,                            !- Wind Exposure
  ,                                       !- View Factor to Ground
  ,                                       !- Number of Vertices
  0, 0, 4,                                !- X,Y,Z Vertex 1 {m}
  0, 0, 0,                                !- X,Y,Z Vertex 2 {m}
  23.2379000772445, 0, 0,                 !- X,Y,Z Vertex 3 {m}
  23.2379000772445, 0, 4;                 !- X,Y,Z Vertex 4 {m}

OS:Surface,
  {30fb19bd-162b-453b-8f72-aad31a5383d2}, !- Handle
  Surface 21,                             !- Name
  Wall,                                   !- Surface Type
  ,                                       !- Construction Name
  {090ff6a2-fdde-4037-8e3b-f10d1c4844d5}, !- Space Name
  Surface,                                !- Outside Boundary Condition
  {e9218446-260a-4edd-b920-bd2c6d1b60de}, !- Outside Boundary Condition Object
  NoSun,                                  !- Sun Exposure
  NoWind,                                 !- Wind Exposure
  ,                                       !- View Factor to Ground
  ,                                       !- Number of Vertices
  3, 3, 4,                                !- X,Y,Z Vertex 1 {m}
  3, 3, 0,                                !- X,Y,Z Vertex 2 {m}
  0, 0, 0,                                !- X,Y,Z Vertex 3 {m}
  0, 0, 4;                                !- X,Y,Z Vertex 4 {m}

OS:Surface,
  {d97777d2-4b33-4c1f-9c60-93e1804b99bb}, !- Handle
  Surface 22,                             !- Name
  Wall,                                   !- Surface Type
  ,                                       !- Construction Name
  {090ff6a2-fdde-4037-8e3b-f10d1c4844d5}, !- Space Name
  Surface,                                !- Outside Boundary Condition
  {1b5eaa32-9020-4995-bdf1-7c981e75ac3c}, !- Outside Boundary Condition Object
  NoSun,                                  !- Sun Exposure
  NoWind,                                 !- Wind Exposure
  ,                                       !- View Factor to Ground
  ,                                       !- Number of Vertices
  20.2379000772445, 3, 4,                 !- X,Y,Z Vertex 1 {m}
  20.2379000772445, 3, 0,                 !- X,Y,Z Vertex 2 {m}
  3, 3, 0,                                !- X,Y,Z Vertex 3 {m}
  3, 3, 4;                                !- X,Y,Z Vertex 4 {m}

OS:Surface,
  {0c91904a-a443-4b6e-a1e3-e12b95a5f758}, !- Handle
  Surface 23,                             !- Name
  Wall,                                   !- Surface Type
  ,                                       !- Construction Name
  {090ff6a2-fdde-4037-8e3b-f10d1c4844d5}, !- Space Name
  Surface,                                !- Outside Boundary Condition
  {200cc524-6671-4f72-a214-6da6a4cc74e8}, !- Outside Boundary Condition Object
  NoSun,                                  !- Sun Exposure
  NoWind,                                 !- Wind Exposure
  ,                                       !- View Factor to Ground
  ,                                       !- Number of Vertices
  23.2379000772445, 0, 4,                 !- X,Y,Z Vertex 1 {m}
  23.2379000772445, 0, 0,                 !- X,Y,Z Vertex 2 {m}
  20.2379000772445, 3, 0,                 !- X,Y,Z Vertex 3 {m}
  20.2379000772445, 3, 4;                 !- X,Y,Z Vertex 4 {m}

OS:Surface,
  {ab438cd0-64d5-43ec-a21b-2e7741ee9c16}, !- Handle
  Surface 24,                             !- Name
  RoofCeiling,                            !- Surface Type
  ,                                       !- Construction Name
  {090ff6a2-fdde-4037-8e3b-f10d1c4844d5}, !- Space Name
  Outdoors,                               !- Outside Boundary Condition
  ,                                       !- Outside Boundary Condition Object
  SunExposed,                             !- Sun Exposure
  WindExposed,                            !- Wind Exposure
  ,                                       !- View Factor to Ground
  ,                                       !- Number of Vertices
  20.2379000772445, 3, 4,                 !- X,Y,Z Vertex 1 {m}
  3, 3, 4,                                !- X,Y,Z Vertex 2 {m}
  0, 0, 4,                                !- X,Y,Z Vertex 3 {m}
  23.2379000772445, 0, 4;                 !- X,Y,Z Vertex 4 {m}

OS:Space,
  {ce5e651e-7210-42d1-8929-7aa3bd83f23a}, !- Handle
  Story 1 Core Space,                     !- Name
  ,                                       !- Space Type Name
  ,                                       !- Default Construction Set Name
  ,                                       !- Default Schedule Set Name
  -0,                                     !- Direction of Relative North {deg}
  3,                                      !- X Origin {m}
  3,                                      !- Y Origin {m}
  0,                                      !- Z Origin {m}
  {88fc9c5f-37d2-4016-8646-db0500249ec6}, !- Building Story Name
  {6261fcd2-41c3-497a-b659-03700827a098}; !- Thermal Zone Name

OS:Surface,
  {b1c08887-4359-4273-81ca-d1ed9065f93e}, !- Handle
  Surface 25,                             !- Name
  Floor,                                  !- Surface Type
  ,                                       !- Construction Name
  {ce5e651e-7210-42d1-8929-7aa3bd83f23a}, !- Space Name
  Ground,                                 !- Outside Boundary Condition
  ,                                       !- Outside Boundary Condition Object
  NoSun,                                  !- Sun Exposure
  NoWind,                                 !- Wind Exposure
  ,                                       !- View Factor to Ground
  ,                                       !- Number of Vertices
  0, 0, 0,                                !- X,Y,Z Vertex 1 {m}
  0, 17.2379000772445, 0,                 !- X,Y,Z Vertex 2 {m}
  17.2379000772445, 17.2379000772445, 0,  !- X,Y,Z Vertex 3 {m}
  17.2379000772445, 0, 0;                 !- X,Y,Z Vertex 4 {m}

OS:Surface,
  {79c8bfd1-8535-42c7-8135-0b72209eec83}, !- Handle
  Surface 26,                             !- Name
  Wall,                                   !- Surface Type
  ,                                       !- Construction Name
  {ce5e651e-7210-42d1-8929-7aa3bd83f23a}, !- Space Name
  Surface,                                !- Outside Boundary Condition
  {05f24c0d-7170-42fc-b251-c05fe41bdc71}, !- Outside Boundary Condition Object
  NoSun,                                  !- Sun Exposure
  NoWind,                                 !- Wind Exposure
  ,                                       !- View Factor to Ground
  ,                                       !- Number of Vertices
  0, 17.2379000772445, 4,                 !- X,Y,Z Vertex 1 {m}
  0, 17.2379000772445, 0,                 !- X,Y,Z Vertex 2 {m}
  0, 0, 0,                                !- X,Y,Z Vertex 3 {m}
  0, 0, 4;                                !- X,Y,Z Vertex 4 {m}

OS:Surface,
  {11d29990-6251-486f-b0bf-d6953e724845}, !- Handle
  Surface 27,                             !- Name
  Wall,                                   !- Surface Type
  ,                                       !- Construction Name
  {ce5e651e-7210-42d1-8929-7aa3bd83f23a}, !- Space Name
  Surface,                                !- Outside Boundary Condition
  {ef9a6536-0b7a-4ef7-a320-eecf57f16da5}, !- Outside Boundary Condition Object
  NoSun,                                  !- Sun Exposure
  NoWind,                                 !- Wind Exposure
  ,                                       !- View Factor to Ground
  ,                                       !- Number of Vertices
  17.2379000772445, 17.2379000772445, 4,  !- X,Y,Z Vertex 1 {m}
  17.2379000772445, 17.2379000772445, 0,  !- X,Y,Z Vertex 2 {m}
  0, 17.2379000772445, 0,                 !- X,Y,Z Vertex 3 {m}
  0, 17.2379000772445, 4;                 !- X,Y,Z Vertex 4 {m}

OS:Surface,
  {07a4941f-ea36-4ee8-af80-5481be1bcde0}, !- Handle
  Surface 28,                             !- Name
  Wall,                                   !- Surface Type
  ,                                       !- Construction Name
  {ce5e651e-7210-42d1-8929-7aa3bd83f23a}, !- Space Name