
OS:Version,
  {454a045a-adeb-422a-8362-3ad2ac052379}, !- Handle
  0.10.0;                                 !- Version Identifier

OS:BuildingStory,
  {0568fb01-d232-4bec-bca4-0b8cd6ff0627}, !- Handle
  Story 1,                                !- Name
  0,                                      !- Nominal Z Coordinate {m}
  4,                                      !- Nominal Floor to Floor Height {m}
  ,                                       !- Default Construction Set Name
  ,                                       !- Default Schedule Set Name
  ;                                       !- Group Rendering Name

OS:Space,
  {82773db0-e3c5-486e-b367-e333a766afa1}, !- Handle
  Story 1 West Perimeter Space,           !- Name
  ,                                       !- Space Type Name
  ,                                       !- Default Construction Set Name
  ,                                       !- Default Schedule Set Name
  -0,                                     !- Direction of Relative North {deg}
  0,                                      !- X Origin {m}
  0,                                      !- Y Origin {m}
  0,                                      !- Z Origin {m}
  {0568fb01-d232-4bec-bca4-0b8cd6ff0627}, !- Building Story Name
  {0baa6797-806e-4d58-a9ba-9e0ffd95666a}; !- Thermal Zone Name

OS:Surface,
  {5630e44b-a2e7-49e4-b1e2-c660bea752b6}, !- Handle
  Surface 1,                              !- Name
  Floor,                                  !- Surface Type
  ,                                       !- Construction Name
  {82773db0-e3c5-486e-b367-e333a766afa1}, !- Space Name
  Ground,                                 !- Outside Boundary Condition
  ,                                       !- Outside Boundary Condition Object
  NoSun,                                  !- Sun Exposure
  NoWind,                                 !- Wind Exposure
  ,                                       !- View Factor to Ground
  ,                                       !- Number of Vertices
  0, 0, 0,                                !- X,Y,Z Vertex 1 {m}
  0, 10, 0,                               !- X,Y,Z Vertex 2 {m}
  3, 7, 0,                                !- X,Y,Z Vertex 3 {m}
  3, 3, 0;                                !- X,Y,Z Vertex 4 {m}

OS:Surface,
  {929bd35e-ae69-43f1-adbd-59f8915d4418}, !- Handle
  Surface 2,                              !- Name
  Wall,                                   !- Surface Type
  ,                                       !- Construction Name
  {82773db0-e3c5-486e-b367-e333a766afa1}, !- Space Name
  Outdoors,                               !- Outside Boundary Condition
  ,                                       !- Outside Boundary Condition Object
  SunExposed,                             !- Sun Exposure
  WindExposed,                            !- Wind Exposure
  ,                                       !- View Factor to Ground
  ,                                       !- Number of Vertices
  0, 10, 4,                               !- X,Y,Z Vertex 1 {m}
  0, 10, 0,                               !- X,Y,Z Vertex 2 {m}
  0, 0, 0,                                !- X,Y,Z Vertex 3 {m}
  0, 0, 4;                                !- X,Y,Z Vertex 4 {m}

OS:Surface,
  {e5485e5b-1f77-4e1e-b7ab-00e54f19be00}, !- Handle
  Surface 3,                              !- Name
  Wall,                                   !- Surface Type
  ,                                       !- Construction Name
  {82773db0-e3c5-486e-b367-e333a766afa1}, !- Space Name
  Surface,                                !- Outside Boundary Condition
  {7a840d24-7474-4947-8aa3-1ab69f0747c5}, !- Outside Boundary Condition Object
  NoSun,                                  !- Sun Exposure
  NoWind,                                 !- Wind Exposure
  ,                                       !- View Factor to Ground
  ,                                       !- Number of Vertices
  3, 7, 4,                                !- X,Y,Z Vertex 1 {m}
  3, 7, 0,                                !- X,Y,Z Vertex 2 {m}
  0, 10, 0,                               !- X,Y,Z Vertex 3 {m}
  0, 10, 4;                               !- X,Y,Z Vertex 4 {m}

OS:Surface,
  {fd631d54-bc71-43a3-8d41-c9b8a74683ec}, !- Handle
  Surface 4,                              !- Name
  Wall,                                   !- Surface Type
  ,                                       !- Construction Name
  {82773db0-e3c5-486e-b367-e333a766afa1}, !- Space Name
  Surface,                                !- Outside Boundary Condition
  {0e1fb240-7cde-4600-92aa-a5dcc380cbce}, !- Outside Boundary Condition Object
  NoSun,                                  !- Sun Exposure
  NoWind,                                 !- Wind Exposure
  ,                                       !- View Factor to Ground
  ,                                       !- Number of Vertices
  3, 3, 4,                                !- X,Y,Z Vertex 1 {m}
  3, 3, 0,                                !- X,Y,Z Vertex 2 {m}
  3, 7, 0,                                !- X,Y,Z Vertex 3 {m}
  3, 7, 4;                                !- X,Y,Z Vertex 4 {m}

OS:Surface,
  {fa69ddbb-251a-4a0f-a3bf-8041a7feb4ae}, !- Handle
  Surface 5,                              !- Name
  Wall,                                   !- Surface Type
  ,                                       !- Construction Name
  {82773db0-e3c5-486e-b367-e333a766afa1}, !- Space Name
  Surface,                                !- Outside Boundary Condition
  {866f1a8d-5681-457f-b673-0fdb85fd7f5d}, !- Outside Boundary Condition Object
  NoSun,                                  !- Sun Exposure
  NoWind,                                 !- Wind Exposure
  ,                                       !- View Factor to Ground
  ,                                       !- Number of Vertices
  0, 0, 4,                                !- X,Y,Z Vertex 1 {m}
  0, 0, 0,                                !- X,Y,Z Vertex 2 {m}
  3, 3, 0,                                !- X,Y,Z Vertex 3 {m}
  3, 3, 4;                                !- X,Y,Z Vertex 4 {m}

OS:Surface,
  {c68a6727-7578-4c7b-a124-82bb1ac97a3b}, !- Handle
  Surface 6,                              !- Name
  RoofCeiling,                            !- Surface Type
  ,                                       !- Construction Name
  {82773db0-e3c5-486e-b367-e333a766afa1}, !- Space Name
  Outdoors,                               !- Outside Boundary Condition
  ,                                       !- Outside Boundary Condition Object
  SunExposed,                             !- Sun Exposure
  WindExposed,                            !- Wind Exposure
  ,                                       !- View Factor to Ground
  ,                                       !- Number of Vertices
  3, 3, 4,                                !- X,Y,Z Vertex 1 {m}
  3, 7, 4,                                !- X,Y,Z Vertex 2 {m}
  0, 10, 4,                               !- X,Y,Z Vertex 3 {m}
  0, 0, 4;                                !- X,Y,Z Vertex 4 {m}

OS:Space,
  {736d6d48-a995-4938-ab37-2744b996b7e2}, !- Handle
  Story 1 North Perimeter Space,          !- Name
  ,                                       !- Space Type Name
  ,                                       !- Default Construction Set Name
  ,                                       !- Default Schedule Set Name
  -0,                                     !- Direction of Relative North {deg}
  3,                                      !- X Origin {m}
  7,                                      !- Y Origin {m}
  0,                                      !- Z Origin {m}
  {0568fb01-d232-4bec-bca4-0b8cd6ff0627}, !- Building Story Name
  {0b240320-bf6f-498d-8d62-b7e49e9c5a7a}; !- Thermal Zone Name

OS:Surface,
  {acc09dcf-5162-4e55-83d9-346f8a0032f4}, !- Handle
  Surface 7,                              !- Name
  Floor,                                  !- Surface Type
  ,                                       !- Construction Name
  {736d6d48-a995-4938-ab37-2744b996b7e2}, !- Space Name
  Ground,                                 !- Outside Boundary Condition
  ,                                       !- Outside Boundary Condition Object
  NoSun,                                  !- Sun Exposure
  NoWind,                                 !- Wind Exposure
  ,                                       !- View Factor to Ground
  ,                                       !- Number of Vertices
  -3, 3, 0,                               !- X,Y,Z Vertex 1 {m}
  7, 3, 0,                                !- X,Y,Z Vertex 2 {m}
  4, 0, 0,                                !- X,Y,Z Vertex 3 {m}
  0, 0, 0;                                !- X,Y,Z Vertex 4 {m}

OS:Surface,
  {944ca5b5-3c1d-40a9-a3b3-1bfb41eaf197}, !- Handle
  Surface 8,                              !- Name
  Wall,                                   !- Surface Type
  ,                                       !- Construction Name
  {736d6d48-a995-4938-ab37-2744b996b7e2}, !- Space Name
  Outdoors,                               !- Outside Boundary Condition
  ,                                       !- Outside Boundary Condition Object
  SunExposed,                             !- Sun Exposure
  WindExposed,                            !- Wind Exposure
  ,                                       !- View Factor to Ground
  ,                                       !- Number of Vertices
  7, 3, 4,                                !- X,Y,Z Vertex 1 {m}
  7, 3, 0,                                !- X,Y,Z Vertex 2 {m}
  -3, 3, 0,                               !- X,Y,Z Vertex 3 {m}
  -3, 3, 4;                               !- X,Y,Z Vertex 4 {m}

OS:Surface,
  {21b8a246-1099-4ba0-97c3-4cf8414417b8}, !- Handle
  Surface 9,                              !- Name
  Wall,                                   !- Surface Type
  ,                                       !- Construction Name
  {736d6d48-a995-4938-ab37-2744b996b7e2}, !- Space Name
  Surface,                                !- Outside Boundary Condition
  {3853b10f-a265-4b29-90a0-fb659d02469f}, !- Outside Boundary Condition Object
  NoSun,                                  !- Sun Exposure
  NoWind,                                 !- Wind Exposure
  ,                                       !- View Factor to Ground
  ,                                       !- Number of Vertices
  4, 0, 4,                                !- X,Y,Z Vertex 1 {m}
  4, 0, 0,                                !- X,Y,Z Vertex 2 {m}
  7, 3, 0,                                !- X,Y,Z Vertex 3 {m}
  7, 3, 4;                                !- X,Y,Z Vertex 4 {m}

OS:Surface,
  {6e664540-d550-42de-a086-642b3717f811}, !- Handle
  Surface 10,                             !- Name
  Wall,                                   !- Surface Type
  ,                                       !- Construction Name
  {736d6d48-a995-4938-ab37-2744b996b7e2}, !- Space Name
  Surface,                                !- Outside Boundary Condition
  {b2ef69b8-340a-41c8-a30b-3984f924d20a}, !- Outside Boundary Condition Object
  NoSun,                                  !- Sun Exposure
  NoWind,                                 !- Wind Exposure
  ,                                       !- View Factor to Ground
  ,                                       !- Number of Vertices
  0, 0, 4,                                !- X,Y,Z Vertex 1 {m}
  0, 0, 0,                                !- X,Y,Z Vertex 2 {m}
  4, 0, 0,                                !- X,Y,Z Vertex 3 {m}
  4, 0, 4;                                !- X,Y,Z Vertex 4 {m}

OS:Surface,
  {7a840d24-7474-4947-8aa3-1ab69f0747c5}, !- Handle
  Surface 11,                             !- Name
  Wall,                                   !- Surface Type
  ,                                       !- Construction Name
  {736d6d48-a995-4938-ab37-2744b996b7e2}, !- Space Name
  Surface,                                !- Outside Boundary Condition
  {e5485e5b-1f77-4e1e-b7ab-00e54f19be00}, !- Outside Boundary Condition Object
  NoSun,                                  !- Sun Exposure
  NoWind,                                 !- Wind Exposure
  ,                                       !- View Factor to Ground
  ,                                       !- Number of Vertices
  -3, 3, 4,                               !- X,Y,Z Vertex 1 {m}
  -3, 3, 0,                               !- X,Y,Z Vertex 2 {m}
  0, 0, 0,                                !- X,Y,Z Vertex 3 {m}
  0, 0, 4;                                !- X,Y,Z Vertex 4 {m}

OS:Surface,
  {d365d254-3641-40ed-83df-89984169b7be}, !- Handle
  Surface 12,                             !- Name
  RoofCeiling,                            !- Surface Type
  ,                                       !- Construction Name
  {736d6d48-a995-4938-ab37-2744b996b7e2}, !- Space Name
  Outdoors,                               !- Outside Boundary Condition
  ,                                       !- Outside Boundary Condition Object
  SunExposed,                             !- Sun Exposure
  WindExposed,                            !- Wind Exposure
  ,                                       !- View Factor to Ground
  ,                                       !- Number of Vertices
  0, 0, 4,                                !- X,Y,Z Vertex 1 {m}
  4, 0, 4,                                !- X,Y,Z Vertex 2 {m}
  7, 3, 4,                                !- X,Y,Z Vertex 3 {m}
  -3, 3, 4;                               !- X,Y,Z Vertex 4 {m}

OS:Space,
  {b6818d2d-cabd-4c0a-9fdd-eee4a3119750}, !- Handle
  Story 1 East Perimeter Space,           !- Name
  ,                                       !- Space Type Name
  ,                                       !- Default Construction Set Name
  ,                                       !- Default Schedule Set Name
  -0,                                     !- Direction of Relative North {deg}
  7,                                      !- X Origin {m}
  3,                                      !- Y Origin {m}
  0,                                      !- Z Origin {m}
  {0568fb01-d232-4bec-bca4-0b8cd6ff0627}, !- Building Story Name
  {31aa6815-306d-40cd-8309-485d672b978c}; !- Thermal Zone Name

OS:Surface,
  {0737d26b-2773-48d7-8446-a653defe4190}, !- Handle
  Surface 13,                             !- Name
  Floor,                                  !- Surface Type
  ,                                       !- Construction Name
  {b6818d2d-cabd-4c0a-9fdd-eee4a3119750}, !- Space Name
  Ground,                                 !- Outside Boundary Condition
  ,                                       !- Outside Boundary Condition Object
  NoSun,                                  !- Sun Exposure
  NoWind,                                 !- Wind Exposure
  ,                                       !- View Factor to Ground
  ,                                       !- Number of Vertices
  3, 7, 0,                                !- X,Y,Z Vertex 1 {m}
  3, -3, 0,                               !- X,Y,Z Vertex 2 {m}
  0, 0, 0,                                !- X,Y,Z Vertex 3 {m}
  0, 4, 0;                                !- X,Y,Z Vertex 4 {m}

OS:Surface,
  {9b6a9cc1-395d-4cc3-8469-ac8c1a17aba1}, !- Handle
  Surface 14,                             !- Name
  Wall,                                   !- Surface Type
  ,                                       !- Construction Name
  {b6818d2d-cabd-4c0a-9fdd-eee4a3119750}, !- Space Name
  Outdoors,                               !- Outside Boundary Condition
  ,                                       !- Outside Boundary Condition Object
  SunExposed,                             !- Sun Exposure
  WindExposed,                            !- Wind Exposure
  ,                                       !- View Factor to Ground
  ,                                       !- Number of Vertices
  3, -3, 4,                               !- X,Y,Z Vertex 1 {m}
  3, -3, 0,                               !- X,Y,Z Vertex 2 {m}
  3, 7, 0,                                !- X,Y,Z Vertex 3 {m}
  3, 7, 4;                                !- X,Y,Z Vertex 4 {m}

OS:Surface,
  {d7463a77-6700-4eeb-a938-dc137fa58de2}, !- Handle
  Surface 15,                             !- Name
  Wall,                                   !- Surface Type
  ,                                       !- Construction Name
  {b6818d2d-cabd-4c0a-9fdd-eee4a3119750}, !- Space Name
  Surface,                                !- Outside Boundary Condition
  {f0607c4a-a58e-44ae-97fe-5d82f04b14bc}, !- Outside Boundary Condition Object
  NoSun,                                  !- Sun Exposure
  NoWind,                                 !- Wind Exposure
  ,                                       !- View Factor to Ground
  ,                                       !- Number of Vertices
  0, 0, 4,                                !- X,Y,Z Vertex 1 {m}
  0, 0, 0,                                !- X,Y,Z Vertex 2 {m}
  3, -3, 0,                               !- X,Y,Z Vertex 3 {m}
  3, -3, 4;                               !- X,Y,Z Vertex 4 {m}

OS:Surface,
  {83cb5018-5584-421f-af68-70e4c0345a9f}, !- Handle
  Surface 16,                             !- Name
  Wall,                                   !- Surface Type
  ,                                       !- Construction Name
  {b6818d2d-cabd-4c0a-9fdd-eee4a3119750}, !- Space Name
  Surface,                                !- Outside Boundary Condition
  {1ae3722a-a955-44e8-8ec4-cce52fe6ac7e}, !- Outside Boundary Condition Object
  NoSun,                                  !- Sun Exposure
  NoWind,                                 !- Wind Exposure
  ,                                       !- View Factor to Ground
  ,                                       !- Number of Vertices
  0, 4, 4,                                !- X,Y,Z Vertex 1 {m}
  0, 4, 0,                                !- X,Y,Z Vertex 2 {m}
  0, 0, 0,                                !- X,Y,Z Vertex 3 {m}
  0, 0, 4;                                !- X,Y,Z Vertex 4 {m}

OS:Surface,
  {3853b10f-a265-4b29-90a0-fb659d02469f}, !- Handle
  Surface 17,                             !- Name
  Wall,                                   !- Surface Type
  ,                                       !- Construction Name
  {b6818d2d-cabd-4c0a-9fdd-eee4a3119750}, !- Space Name
  Surface,                                !- Outside Boundary Condition
  {21b8a246-1099-4ba0-97c3-4cf8414417b8}, !- Outside Boundary Condition Object
  NoSun,                                  !- Sun Exposure
  NoWind,                                 !- Wind Exposure
  ,                                       !- View Factor to Ground
  ,                                       !- Number of Vertices
  3, 7, 4,                                !- X,Y,Z Vertex 1 {m}
  3, 7, 0,                                !- X,Y,Z Vertex 2 {m}
  0, 4, 0,                                !- X,Y,Z Vertex 3 {m}
  0, 4, 4;                                !- X,Y,Z Vertex 4 {m}

OS:Surface,
  {d3a6f35a-9317-4e0f-967a-db618dc0ebed}, !- Handle
  Surface 18,                             !- Name
  RoofCeiling,                            !- Surface Type
  ,                                       !- Construction Name
  {b6818d2d-cabd-4c0a-9fdd-eee4a3119750}, !- Space Name
  Outdoors,                               !- Outside Boundary Condition
  ,                                       !- Outside Boundary Condition Object
  SunExposed,                             !- Sun Exposure
  WindExposed,                            !- Wind Exposure
  ,                                       !- View Factor to Ground
  ,                                       !- Number of Vertices
  0, 4, 4,                                !- X,Y,Z Vertex 1 {m}
  0, 0, 4,                                !- X,Y,Z Vertex 2 {m}
  3, -3, 4,                               !- X,Y,Z Vertex 3 {m}
  3, 7, 4;                                !- X,Y,Z Vertex 4 {m}

OS:Space,
  {3133288c-e31e-49d2-b70b-d280c2c0d7e9}, !- Handle
  Story 1 South Perimeter Space,          !- Name
  ,                                       !- Space Type Name
  ,                                       !- Default Construction Set Name
  ,                                       !- Default Schedule Set Name
  -0,                                     !- Direction of Relative North {deg}
  0,                                      !- X Origin {m}
  0,                                      !- Y Origin {m}
  0,                                      !- Z Origin {m}
  {0568fb01-d232-4bec-bca4-0b8cd6ff0627}, !- Building Story Name
  {38c47d2b-b50d-4ec6-88c0-d2f94cc4fefa}; !- Thermal Zone Name

OS:Surface,
  {629e6fa4-1429-49d2-a43f-6206f4cccc03}, !- Handle
  Surface 19,                             !- Name
  Floor,                                  !- Surface Type
  ,                                       !- Construction Name
  {3133288c-e31e-49d2-b70b-d280c2c0d7e9}, !- Space Name
  Ground,                                 !- Outside Boundary Condition
  ,                                       !- Outside Boundary Condition Object
  NoSun,                                  !- Sun Exposure
  NoWind,                                 !- Wind Exposure
  ,                                       !- View Factor to Ground
  ,                                       !- Number of Vertices
  10, 0, 0,                               !- X,Y,Z Vertex 1 {m}
  0, 0, 0,                                !- X,Y,Z Vertex 2 {m}
  3, 3, 0,                                !- X,Y,Z Vertex 3 {m}
  7, 3, 0;                                !- X,Y,Z Vertex 4 {m}

OS:Surface,
  {6dc83231-ef85-43c0-90d2-49e2cc8a1206}, !- Handle
  Surface 20,                             !- Name
  Wall,                                   !- Surface Type
  ,                                       !- Construction Name
  {3133288c-e31e-49d2-b70b-d280c2c0d7e9}, !- Space Name
  Outdoors,                               !- Outside Boundary Condition
  ,                                       !- Outside Boundary Condition Object
  SunExposed,                             !- Sun Exposure
  WindExposed,                            !- Wind Exposure
  ,                                       !- View Factor to Ground
  ,                                       !- Number of Vertices
  0, 0, 4,                                !- X,Y,Z Vertex 1 {m}
  0, 0, 0,                                !- X,Y,Z Vertex 2 {m}
  10, 0, 0,                               !- X,Y,Z Vertex 3 {m}
  10, 0, 4;                               !- X,Y,Z Vertex 4 {m}

OS:Surface,
  {866f1a8d-5681-457f-b673-0fdb85fd7f5d}, !- Handle
  Surface 21,                             !- Name
  Wall,                                   !- Surface Type
  ,                                       !- Construction Name
  {3133288c-e31e-49d2-b70b-d280c2c0d7e9}, !- Space Name
  Surface,                                !- Outside Boundary Condition
  {fa69ddbb-251a-4a0f-a3bf-8041a7feb4ae}, !- Outside Boundary Condition Object
  NoSun,                                  !- Sun Exposure
  NoWind,                                 !- Wind Exposure
  ,                                       !- View Factor to Ground
  ,                                       !- Number of Vertices
  3, 3, 4,                                !- X,Y,Z Vertex 1 {m}
  3, 3, 0,                                !- X,Y,Z Vertex 2 {m}
  0, 0, 0,                                !- X,Y,Z Vertex 3 {m}
  0, 0, 4;                                !- X,Y,Z Vertex 4 {m}

OS:Surface,
  {835cd4dc-0766-46cc-ac7b-96644933f2a5}, !- Handle
  Surface 22,                             !- Name
  Wall,                                   !- Surface Type
  ,                                       !- Construction Name
  {3133288c-e31e-49d2-b70b-d280c2c0d7e9}, !- Space Name
  Surface,                                !- Outside Boundary Condition
  {67e0add7-7fdf-44cc-8e7a-25beb12c0128}, !- Outside Boundary Condition Object
  NoSun,                                  !- Sun Exposure
  NoWind,                                 !- Wind Exposure
  ,                                       !- View Factor to Ground
  ,                                       !- Number of Vertices
  7, 3, 4,                                !- X,Y,Z Vertex 1 {m}
  7, 3, 0,                                !- X,Y,Z Vertex 2 {m}
  3, 3, 0,                                !- X,Y,Z Vertex 3 {m}
  3, 3, 4;                                !- X,Y,Z Vertex 4 {m}

OS:Surface,
  {f0607c4a-a58e-44ae-97fe-5d82f04b14bc}, !- Handle
  Surface 23,                             !- Name
  Wall,                                   !- Surface Type
  ,                                       !- Construction Name
  {3133288c-e31e-49d2-b70b-d280c2c0d7e9}, !- Space Name
  Surface,                                !- Outside Boundary Condition
  {d7463a77-6700-4eeb-a938-dc137fa58de2}, !- Outside Boundary Condition Object
  NoSun,                                  !- Sun Exposure
  NoWind,                                 !- Wind Exposure
  ,                                       !- View Factor to Ground
  ,                                       !- Number of Vertices
  10, 0, 4,                               !- X,Y,Z Vertex 1 {m}
  10, 0, 0,                               !- X,Y,Z Vertex 2 {m}
  7, 3, 0,                                !- X,Y,Z Vertex 3 {m}
  7, 3, 4;                                !- X,Y,Z Vertex 4 {m}

OS:Surface,
  {f5c54f6f-4088-4169-9207-f7d7f9e1cac9}, !- Handle
  Surface 24,                             !- Name
  RoofCeiling,                            !- Surface Type
  ,                                       !- Construction Name
  {3133288c-e31e-49d2-b70b-d280c2c0d7e9}, !- Space Name
  Outdoors,                               !- Outside Boundary Condition
  ,                                       !- Outside Boundary Condition Object
  SunExposed,                             !- Sun Exposure
  WindExposed,                            !- Wind Exposure
  ,                                       !- View Factor to Ground
  ,                                       !- Number of Vertices
  7, 3, 4,                                !- X,Y,Z Vertex 1 {m}
  3, 3, 4,                                !- X,Y,Z Vertex 2 {m}
  0, 0, 4,                                !- X,Y,Z Vertex 3 {m}
  10, 0, 4;                               !- X,Y,Z Vertex 4 {m}

OS:Space,
  {9b00192d-5da0-4d46-a11f-96e1dbfb314e}, !- Handle
  Story 1 Core Space,                     !- Name
  ,                                       !- Space Type Name
  ,                                       !- Default Construction Set Name
  ,                                       !- Default Schedule Set Name
  -0,                                     !- Direction of Relative North {deg}
  3,                                      !- X Origin {m}
  3,                                      !- Y Origin {m}
  0,                                      !- Z Origin {m}
  {0568fb01-d232-4bec-bca4-0b8cd6ff0627}, !- Building Story Name
  {9ca01332-a7df-4388-8f9b-d456e48f673d}; !- Thermal Zone Name

OS:Surface,
  {5d9edec5-b4da-499b-9fe0-c070f581486b}, !- Handle
  Surface 25,                             !- Name
  Floor,                                  !- Surface Type
  ,                                       !- Construction Name
  {9b00192d-5da0-4d46-a11f-96e1dbfb314e}, !- Space Name
  Ground,                                 !- Outside Boundary Condition
  ,                                       !- Outside Boundary Condition Object
  NoSun,                                  !- Sun Exposure
  NoWind,                                 !- Wind Exposure
  ,                                       !- View Factor to Ground
  ,                                       !- Number of Vertices
  0, 0, 0,                                !- X,Y,Z Vertex 1 {m}
  0, 4, 0,                                !- X,Y,Z Vertex 2 {m}
  4, 4, 0,                                !- X,Y,Z Vertex 3 {m}
  4, 0, 0;                                !- X,Y,Z Vertex 4 {m}

OS:Surface,
  {0e1fb240-7cde-4600-92aa-a5dcc380cbce}, !- Handle
  Surface 26,                             !- Name
  Wall,                                   !- Surface Type
  ,                                       !- Construction Name
  {9b00192d-5da0-4d46-a11f-96e1dbfb314e}, !- Space Name
  Surface,                                !- Outside Boundary Condition
  {fd631d54-bc71-43a3-8d41-c9b8a74683ec}, !- Outside Boundary Condition Object
  NoSun,                                  !- Sun Exposure
  NoWind,                                 !- Wind Exposure
  ,                                       !- View Factor to Ground
  ,                                       !- Number of Vertices
  0, 4, 4,                                !- X,Y,Z Vertex 1 {m}
  0, 4, 0,                                !- X,Y,Z Vertex 2 {m}
  0, 0, 0,                                !- X,Y,Z Vertex 3 {m}
  0, 0, 4;                                !- X,Y,Z Vertex 4 {m}

OS:Surface,
  {b2ef69b8-340a-41c8-a30b-3984f924d20a}, !- Handle
  Surface 27,                             !- Name
  Wall,                                   !- Surface Type
  ,                                       !- Construction Name
  {9b00192d-5da0-4d46-a11f-96e1dbfb314e}, !- Space Name
  Surface,                                !- Outside Boundary Condition
  {6e664540-d550-42de-a086-642b3717f811}, !- Outside Boundary Condition Object
  NoSun,                                  !- Sun Exposure
  NoWind,                                 !- Wind Exposure
  ,                                       !- View Factor to Ground
  ,                                       !- Number of Vertices
  4, 4, 4,                                !- X,Y,Z Vertex 1 {m}
  4, 4, 0,                                !- X,Y,Z Vertex 2 {m}
  0, 4, 0,                                !- X,Y,Z Vertex 3 {m}
  0, 4, 4;                                !- X,Y,Z Vertex 4 {m}

OS:Surface,
  {1ae3722a-a955-44e8-8ec4-cce52fe6ac7e}, !- Handle
  Surface 28,                             !- Name
  Wall,                                   !- Surface Type
  ,                                       !- Construction Name
  {9b00192d-5da0-4d46-a11f-96e1dbfb314e}, !- Space Name