
OS:Version,
  {5516d75c-e83d-41d4-a50a-16b9d9d50a39}, !- Handle
  0.10.0;                                 !- Version Identifier

OS:BuildingStory,
  {af415d7c-246f-4d8a-9e68-bc39b08f5034}, !- Handle
  Story 1,                                !- Name
  0,                                      !- Nominal Z Coordinate {m}
  4,                                      !- Nominal Floor to Floor Height {m}
  ,                                       !- Default Construction Set Name
  ,                                       !- Default Schedule Set Name
  ;                                       !- Group Rendering Name

OS:Space,
  {95a97526-6ec7-46c8-943d-e7b726394f7c}, !- Handle
  Story 1 West Perimeter Space,           !- Name
  ,                                       !- Space Type Name
  ,                                       !- Default Construction Set Name
  ,                                       !- Default Schedule Set Name
  -0,                                     !- Direction of Relative North {deg}
  0,                                      !- X Origin {m}
  0,                                      !- Y Origin {m}
  0,                                      !- Z Origin {m}
  {af415d7c-246f-4d8a-9e68-bc39b08f5034}, !- Building Story Name
  {962405e7-ac21-44d8-b506-1bc691f803f0}; !- Thermal Zone Name

OS:Surface,
  {5f062d93-7ab7-43f1-8a66-bfe2ecbafec9}, !- Handle
  Surface 1,                              !- Name
  Floor,                                  !- Surface Type
  ,                                       !- Construction Name
  {95a97526-6ec7-46c8-943d-e7b726394f7c}, !- Space Name
  Ground,                                 !- Outside Boundary Condition
  ,                                       !- Outside Boundary Condition Object
  NoSun,                                  !- Sun Exposure
  NoWind,                                 !- Wind Exposure
  ,                                       !- View Factor to Ground
  ,                                       !- Number of Vertices
  0, 0, 0,                                !- X,Y,Z Vertex 1 {m}
  0, 13.228756555323, 0,                  !- X,Y,Z Vertex 2 {m}
  3, 10.228756555323, 0,                  !- X,Y,Z Vertex 3 {m}
  3, 3, 0;                                !- X,Y,Z Vertex 4 {m}

OS:Surface,
  {90594465-43e0-49e4-aba9-666ba5ed4f75}, !- Handle
  Surface 2,                              !- Name
  Wall,                                   !- Surface Type
  ,                                       !- Construction Name
  {95a97526-6ec7-46c8-943d-e7b726394f7c}, !- Space Name
  Outdoors,                               !- Outside Boundary Condition
  ,                                       !- Outside Boundary Condition Object
  SunExposed,                             !- Sun Exposure
  WindExposed,                            !- Wind Exposure
  ,                                       !- View Factor to Ground
  ,                                       !- Number of Vertices
  0, 13.228756555323, 4,                  !- X,Y,Z Vertex 1 {m}
  0, 13.228756555323, 0,                  !- X,Y,Z Vertex 2 {m}
  0, 0, 0,                                !- X,Y,Z Vertex 3 {m}
  0, 0, 4;                                !- X,Y,Z Vertex 4 {m}

OS:Surface,
  {97937b51-d640-4182-8833-8a5213616757}, !- Handle
  Surface 3,                              !- Name
  Wall,                                   !- Surface Type
  ,                                       !- Construction Name
  {95a97526-6ec7-46c8-943d-e7b726394f7c}, !- Space Name
  Surface,                                !- Outside Boundary Condition
  {ad3bd938-089b-4c7c-8b51-00cc9b4209f9}, !- Outside Boundary Condition Object
  NoSun,                                  !- Sun Exposure
  NoWind,                                 !- Wind Exposure
  ,                                       !- View Factor to Ground
  ,                                       !- Number of Vertices
  3, 10.228756555323, 4,                  !- X,Y,Z Vertex 1 {m}
  3, 10.228756555323, 0,                  !- X,Y,Z Vertex 2 {m}
  0, 13.228756555323, 0,                  !- X,Y,Z Vertex 3 {m}
  0, 13.228756555323, 4;                  !- X,Y,Z Vertex 4 {m}

OS:Surface,
  {18210f1b-b7b0-492f-8fd6-fcb70fbbf2e3}, !- Handle
  Surface 4,                              !- Name
  Wall,                                   !- Surface Type
  ,                                       !- Construction Name
  {95a97526-6ec7-46c8-943d-e7b726394f7c}, !- Space Name
  Surface,                                !- Outside Boundary Condition
  {bc452465-7037-423c-bb6e-2590ff75ef9c}, !- Outside Boundary Condition Object
  NoSun,                                  !- Sun Exposure
  NoWind,                                 !- Wind Exposure
  ,                                       !- View Factor to Ground
  ,                                       !- Number of Vertices
  3, 3, 4,                                !- X,Y,Z Vertex 1 {m}
  3, 3, 0,                                !- X,Y,Z Vertex 2 {m}
  3, 10.228756555323, 0,                  !- X,Y,Z Vertex 3 {m}
  3, 10.228756555323, 4;                  !- X,Y,Z Vertex 4 {m}

OS:Surface,
  {e1a04738-8086-4871-8aed-7172515b1e8d}, !- Handle
  Surface 5,                              !- Name
  Wall,                                   !- Surface Type
  ,                                       !- Construction Name
  {95a97526-6ec7-46c8-943d-e7b726394f7c}, !- Space Name
  Surface,                                !- Outside Boundary Condition
  {9824a221-c6da-42b9-a099-070d79f85d71}, !- Outside Boundary Condition Object
  NoSun,                                  !- Sun Exposure
  NoWind,                                 !- Wind Exposure
  ,                                       !- View Factor to Ground
  ,                                       !- Number of Vertices
  0, 0, 4,                                !- X,Y,Z Vertex 1 {m}
  0, 0, 0,                                !- X,Y,Z Vertex 2 {m}
  3, 3, 0,                                !- X,Y,Z Vertex 3 {m}
  3, 3, 4;                                !- X,Y,Z Vertex 4 {m}

OS:Surface,
  {1b8897f2-88b6-4a20-9233-cc9d96f5f753}, !- Handle
  Surface 6,                              !- Name
  RoofCeiling,                            !- Surface Type
  ,                                       !- Construction Name
  {95a97526-6ec7-46c8-943d-e7b726394f7c}, !- Space Name
  Outdoors,                               !- Outside Boundary Condition
  ,                                       !- Outside Boundary Condition Object
  SunExposed,                             !- Sun Exposure
  WindExposed,                            !- Wind Exposure
  ,                                       !- View Factor to Ground
  ,                                       !- Number of Vertices
  3, 3, 4,                                !- X,Y,Z Vertex 1 {m}
  3, 10.228756555323, 4,                  !- X,Y,Z Vertex 2 {m}
  0, 13.228756555323, 4,                  !- X,Y,Z Vertex 3 {m}
  0, 0, 4;                                !- X,Y,Z Vertex 4 {m}

OS:Space,
  {d1128380-a4a3-4be3-85d5-c7f312e33bbf}, !- Handle
  Story 1 North Perimeter Space,          !- Name
  ,                                       !- Space Type Name
  ,                                       !- Default Construction Set Name
  ,                                       !- Default Schedule Set Name
  -0,                                     !- Direction of Relative North {deg}
  3,                                      !- X Origin {m}
  10.228756555323,                        !- Y Origin {m}
  0,                                      !- Z Origin {m}
  {af415d7c-246f-4d8a-9e68-bc39b08f5034}, !- Building Story Name
  {4005ee29-d87a-460e-9239-eccc1a41cbc8}; !- Thermal Zone Name

OS:Surface,
  {5edb59d1-1f85-4b6d-af3f-45a7d0b91793}, !- Handle
  Surface 7,                              !- Name
  Floor,                                  !- Surface Type
  ,                                       !- Construction Name
  {d1128380-a4a3-4be3-85d5-c7f312e33bbf}, !- Space Name
  Ground,                                 !- Outside Boundary Condition
  ,                                       !- Outside Boundary Condition Object
  NoSun,                                  !- Sun Exposure
  NoWind,                                 !- Wind Exposure
  ,                                       !- View Factor to Ground
  ,                                       !- Number of Vertices
  -3, 3.00000000000005, 0,                !- X,Y,Z Vertex 1 {m}
  10.228756555323, 3.00000000000005, 0,   !- X,Y,Z Vertex 2 {m}
  7.228756555323, 4.79616346638068e-14, 0, !- X,Y,Z Vertex 3 {m}
  0, 4.79616346638068e-14, 0;             !- X,Y,Z Vertex 4 {m}

OS:Surface,
  {06a6b4a6-dce3-4696-ac72-c86a1c9c7f86}, !- Handle
  Surface 8,                              !- Name
  Wall,                                   !- Surface Type
  ,                                       !- Construction Name
  {d1128380-a4a3-4be3-85d5-c7f312e33bbf}, !- Space Name
  Outdoors,                               !- Outside Boundary Condition
  ,                                       !- Outside Boundary Condition Object
  SunExposed,                             !- Sun Exposure
  WindExposed,                            !- Wind Exposure
  ,                                       !- View Factor to Ground
  ,                                       !- Number of Vertices
  10.228756555323, 3.00000000000005, 4,   !- X,Y,Z Vertex 1 {m}
  10.228756555323, 3.00000000000005, 0,   !- X,Y,Z Vertex 2 {m}
  -3, 3.00000000000005, 0,                !- X,Y,Z Vertex 3 {m}
  -3, 3.00000000000005, 4;                !- X,Y,Z Vertex 4 {m}

OS:Surface,
  {ed71053f-54ff-4f34-a89d-497f580fde14}, !- Handle
  Surface 9,                              !- Name
  Wall,                                   !- Surface Type
  ,                                       !- Construction Name
  {d1128380-a4a3-4be3-85d5-c7f312e33bbf}, !- Space Name
  Surface,                                !- Outside Boundary Condition
  {0a46af6b-7700-462a-9ae1-ec6d8bf46b36}, !- Outside Boundary Condition Object
  NoSun,                                  !- Sun Exposure
  NoWind,                                 !- Wind Exposure
  ,                                       !- View Factor to Ground
  ,                                       !- Number of Vertices
  7.228756555323, 4.79616346638068e-14, 4, !- X,Y,Z Vertex 1 {m}
  7.228756555323, 4.79616346638068e-14, 0, !- X,Y,Z Vertex 2 {m}
  10.228756555323, 3.00000000000005, 0,   !- X,Y,Z Vertex 3 {m}
  10.228756555323, 3.00000000000005, 4;   !- X,Y,Z Vertex 4 {m}

OS:Surface,
  {035e4d59-d0cb-4b44-b2ae-2a7fe5d653a1}, !- Handle
  Surface 10,                             !- Name
  Wall,                                   !- Surface Type
  ,                                       !- Construction Name
  {d1128380-a4a3-4be3-85d5-c7f312e33bbf}, !- Space Name
  Surface,                                !- Outside Boundary Condition
  {f6709e5b-6562-4d48-a598-0f70d3554956}, !- Outside Boundary Condition Object
  NoSun,                                  !- Sun Exposure
  NoWind,                                 !- Wind Exposure
  ,                                       !- View Factor to Ground
  ,                                       !- Number of Vertices
  0, 4.79616346638068e-14, 4,             !- X,Y,Z Vertex 1 {m}
  0, 4.79616346638068e-14, 0,             !- X,Y,Z Vertex 2 {m}
  7.228756555323, 4.79616346638068e-14, 0, !- X,Y,Z Vertex 3 {m}
  7.228756555323, 4.79616346638068e-14, 4; !- X,Y,Z Vertex 4 {m}

OS:Surface,
  {ad3bd938-089b-4c7c-8b51-00cc9b4209f9}, !- Handle
  Surface 11,                             !- Name
  Wall,                                   !- Surface Type
  ,                                       !- Construction Name
  {d1128380-a4a3-4be3-85d5-c7f312e33bbf}, !- Space Name
  Surface,                                !- Outside Boundary Condition
  {97937b51-d640-4182-8833-8a5213616757}, !- Outside Boundary Condition Object
  NoSun,                                  !- Sun Exposure
  NoWind,                                 !- Wind Exposure
  ,                                       !- View Factor to Ground
  ,                                       !- Number of Vertices
  -3, 3.00000000000005, 4,                !- X,Y,Z Vertex 1 {m}
  -3, 3.00000000000005, 0,                !- X,Y,Z Vertex 2 {m}
  0, 4.79616346638068e-14, 0,             !- X,Y,Z Vertex 3 {m}
  0, 4.79616346638068e-14, 4;             !- X,Y,Z Vertex 4 {m}

OS:Surface,
  {41498c55-c8f2-4d6d-89d2-92e6331a831a}, !- Handle
  Surface 12,                             !- Name
  RoofCeiling,                            !- Surface Type
  ,                                       !- Construction Name
  {d1128380-a4a3-4be3-85d5-c7f312e33bbf}, !- Space Name
  Outdoors,                               !- Outside Boundary Condition
  ,                                       !- Outside Boundary Condition Object
  SunExposed,                             !- Sun Exposure
  WindExposed,                            !- Wind Exposure
  ,                                       !- View Factor to Ground
  ,                                       !- Number of Vertices
  0, 4.79616346638068e-14, 4,             !- X,Y,Z Vertex 1 {m}
  7.228756555323, 4.79616346638068e-14, 4, !- X,Y,Z Vertex 2 {m}
  10.228756555323, 3.00000000000005, 4,   !- X,Y,Z Vertex 3 {m}
  -3, 3.00000000000005, 4;                !- X,Y,Z Vertex 4 {m}

OS:Space,
  {b94ab70c-f165-41cb-b3a1-737d70080e26}, !- Handle
  Story 1 East Perimeter Space,           !- Name
  ,                                       !- Space Type Name
  ,                                       !- Default Construction Set Name
  ,                                       !- Default Schedule Set Name
  -0,                                     !- Direction of Relative North {deg}
  10.228756555323,                        !- X Origin {m}
  3,                                      !- Y Origin {m}
  0,                                      !- Z Origin {m}
  {af415d7c-246f-4d8a-9e68-bc39b08f5034}, !- Building Story Name
  {b550af2e-5491-44c8-a918-e4036e7ff076}; !- Thermal Zone Name

OS:Surface,
  {77b1bf6b-e9b4-4471-aea6-72d5058e0871}, !- Handle
  Surface 13,                             !- Name
  Floor,                                  !- Surface Type
  ,                                       !- Construction Name
  {b94ab70c-f165-41cb-b3a1-737d70080e26}, !- Space Name
  Ground,                                 !- Outside Boundary Condition
  ,                                       !- Outside Boundary Condition Object
  NoSun,                                  !- Sun Exposure
  NoWind,                                 !- Wind Exposure
  ,                                       !- View Factor to Ground
  ,                                       !- Number of Vertices
  3.00000000000005, 10.228756555323, 0,   !- X,Y,Z Vertex 1 {m}
  3.00000000000005, -3, 0,                !- X,Y,Z Vertex 2 {m}
  4.79616346638068e-14, 0, 0,             !- X,Y,Z Vertex 3 {m}
  4.79616346638068e-14, 7.228756555323, 0; !- X,Y,Z Vertex 4 {m}

OS:Surface,
  {6e4a2c0c-7c2e-4bff-a1a6-cb00c68db913}, !- Handle
  Surface 14,                             !- Name
  Wall,                                   !- Surface Type
  ,                                       !- Construction Name
  {b94ab70c-f165-41cb-b3a1-737d70080e26}, !- Space Name
  Outdoors,                               !- Outside Boundary Condition
  ,                                       !- Outside Boundary Condition Object
  SunExposed,                             !- Sun Exposure
  WindExposed,                            !- Wind Exposure
  ,                                       !- View Factor to Ground
  ,                                       !- Number of Vertices
  3.00000000000005, -3, 4,                !- X,Y,Z Vertex 1 {m}
  3.00000000000005, -3, 0,                !- X,Y,Z Vertex 2 {m}
  3.00000000000005, 10.228756555323, 0,   !- X,Y,Z Vertex 3 {m}
  3.00000000000005, 10.228756555323, 4;   !- X,Y,Z Vertex 4 {m}

OS:Surface,
  {a42c4660-988d-4707-86cc-04607945f273}, !- Handle
  Surface 15,                             !- Name
  Wall,                                   !- Surface Type
  ,                                       !- Construction Name
  {b94ab70c-f165-41cb-b3a1-737d70080e26}, !- Space Name
  Surface,                                !- Outside Boundary Condition
  {0c9faa9a-0989-4e54-860f-9a476e2c771f}, !- Outside Boundary Condition Object
  NoSun,                                  !- Sun Exposure
  NoWind,                                 !- Wind Exposure
  ,                                       !- View Factor to Ground
  ,                                       !- Number of Vertices
  4.79616346638068e-14, 0, 4,             !- X,Y,Z Vertex 1 {m}
  4.79616346638068e-14, 0, 0,             !- X,Y,Z Vertex 2 {m}
  3.00000000000005, -3, 0,                !- X,Y,Z Vertex 3 {m}
  3.00000000000005, -3, 4;                !- X,Y,Z Vertex 4 {m}

OS:Surface,
  {59443bee-0e2b-4933-9df1-ccc902bb3a8c}, !- Handle
  Surface 16,                             !- Name
  Wall,                                   !- Surface Type
  ,                                       !- Construction Name
  {b94ab70c-f165-41cb-b3a1-737d70080e26}, !- Space Name
  Surface,                                !- Outside Boundary Condition
  {1bc9b253-d661-41f4-848a-4bc12beb8551}, !- Outside Boundary Condition Object
  NoSun,                                  !- Sun Exposure
  NoWind,                                 !- Wind Exposure
  ,                                       !- View Factor to Ground
  ,                                       !- Number of Vertices
  4.79616346638068e-14, 7.228756555323, 4, !- X,Y,Z Vertex 1 {m}
  4.79616346638068e-14, 7.228756555323, 0, !- X,Y,Z Vertex 2 {m}
  4.79616346638068e-14, 0, 0,             !- X,Y,Z Vertex 3 {m}
  4.79616346638068e-14, 0, 4;             !- X,Y,Z Vertex 4 {m}

OS:Surface,
  {0a46af6b-7700-462a-9ae1-ec6d8bf46b36}, !- Handle
  Surface 17,                             !- Name
  Wall,                                   !- Surface Type
  ,                                       !- Construction Name
  {b94ab70c-f165-41cb-b3a1-737d70080e26}, !- Space Name
  Surface,                                !- Outside Boundary Condition
  {ed71053f-54ff-4f34-a89d-497f580fde14}, !- Outside Boundary Condition Object
  NoSun,                                  !- Sun Exposure
  NoWind,                                 !- Wind Exposure
  ,                                       !- View Factor to Ground
  ,                                       !- Number of Vertices
  3.00000000000005, 10.228756555323, 4,   !- X,Y,Z Vertex 1 {m}
  3.00000000000005, 10.228756555323, 0,   !- X,Y,Z Vertex 2 {m}
  4.79616346638068e-14, 7.228756555323, 0, !- X,Y,Z Vertex 3 {m}
  4.79616346638068e-14, 7.228756555323, 4; !- X,Y,Z Vertex 4 {m}

OS:Surface,
  {5b70b40b-0925-468e-b02b-10126ec382d5}, !- Handle
  Surface 18,                             !- Name
  RoofCeiling,                            !- Surface Type
  ,                                       !- Construction Name
  {b94ab70c-f165-41cb-b3a1-737d70080e26}, !- Space Name
  Outdoors,                               !- Outside Boundary Condition
  ,                                       !- Outside Boundary Condition Object
  SunExposed,                             !- Sun Exposure
  WindExposed,                            !- Wind Exposure
  ,                                       !- View Factor to Ground
  ,                                       !- Number of Vertices
  4.79616346638068e-14, 7.228756555323, 4, !- X,Y,Z Vertex 1 {m}
  4.79616346638068e-14, 0, 4,             !- X,Y,Z Vertex 2 {m}
  3.00000000000005, -3, 4,                !- X,Y,Z Vertex 3 {m}
  3.00000000000005, 10.228756555323, 4;   !- X,Y,Z Vertex 4 {m}

OS:Space,
  {b47fb755-42ab-411b-bc67-ca797cc00441}, !- Handle
  Story 1 South Perimeter Space,          !- Name
  ,                                       !- Space Type Name
  ,                                       !- Default Construction Set Name
  ,                                       !- Default Schedule Set Name
  -0,                                     !- Direction of Relative North {deg}
  0,                                      !- X Origin {m}
  0,                                      !- Y Origin {m}
  0,                                      !- Z Origin {m}
  {af415d7c-246f-4d8a-9e68-bc39b08f5034}, !- Building Story Name
  {fff288ed-51f3-4abe-9bce-dfab7e6e0f74}; !- Thermal Zone Name

OS:Surface,
  {cf3b69d8-f1d9-4020-bb2f-14858c47dc0a}, !- Handle
  Surface 19,                             !- Name
  Floor,                                  !- Surface Type
  ,                                       !- Construction Name
  {b47fb755-42ab-411b-bc67-ca797cc00441}, !- Space Name
  Ground,                                 !- Outside Boundary Condition
  ,                                       !- Outside Boundary Condition Object
  NoSun,                                  !- Sun Exposure
  NoWind,                                 !- Wind Exposure
  ,                                       !- View Factor to Ground
  ,                                       !- Number of Vertices
  13.228756555323, 0, 0,                  !- X,Y,Z Vertex 1 {m}
  0, 0, 0,                                !- X,Y,Z Vertex 2 {m}
  3, 3, 0,                                !- X,Y,Z Vertex 3 {m}
  10.228756555323, 3, 0;                  !- X,Y,Z Vertex 4 {m}

OS:Surface,
  {e152f4bb-f318-4b93-99a3-ffadd09c7b82}, !- Handle
  Surface 20,                             !- Name
  Wall,                                   !- Surface Type
  ,                                       !- Construction Name
  {b47fb755-42ab-411b-bc67-ca797cc00441}, !- Space Name
  Outdoors,                               !- Outside Boundary Condition
  ,                                       !- Outside Boundary Condition Object
  SunExposed,                             !- Sun Exposure
  WindExposed,                            !- Wind Exposure
  ,                                       !- View Factor to Ground
  ,                                       !- Number of Vertices
  0, 0, 4,                                !- X,Y,Z Vertex 1 {m}
  0, 0, 0,                                !- X,Y,Z Vertex 2 {m}
  13.228756555323, 0, 0,                  !- X,Y,Z Vertex 3 {m}
  13.228756555323, 0, 4;                  !- X,Y,Z Vertex 4 {m}

OS:Surface,
  {9824a221-c6da-42b9-a099-070d79f85d71}, !- Handle
  Surface 21,                             !- Name
  Wall,                                   !- Surface Type
  ,                                       !- Construction Name
  {b47fb755-42ab-411b-bc67-ca797cc00441}, !- Space Name
  Surface,                                !- Outside Boundary Condition
  {e1a04738-8086-4871-8aed-7172515b1e8d}, !- Outside Boundary Condition Object
  NoSun,                                  !- Sun Exposure
  NoWind,                                 !- Wind Exposure
  ,                                       !- View Factor to Ground
  ,                                       !- Number of Vertices
  3, 3, 4,                                !- X,Y,Z Vertex 1 {m}
  3, 3, 0,                                !- X,Y,Z Vertex 2 {m}
  0, 0, 0,                                !- X,Y,Z Vertex 3 {m}
  0, 0, 4;                                !- X,Y,Z Vertex 4 {m}

OS:Surface,
  {5be940c8-e9f2-4055-af42-655898eefa1c}, !- Handle
  Surface 22,                             !- Name
  Wall,                                   !- Surface Type
  ,                                       !- Construction Name
  {b47fb755-42ab-411b-bc67-ca797cc00441}, !- Space Name
  Surface,                                !- Outside Boundary Condition
  {4b4995f9-7c26-4f88-9a57-b3066c5b3dbb}, !- Outside Boundary Condition Object
  NoSun,                                  !- Sun Exposure
  NoWind,                                 !- Wind Exposure
  ,                                       !- View Factor to Ground
  ,                                       !- Number of Vertices
  10.228756555323, 3, 4,                  !- X,Y,Z Vertex 1 {m}
  10.228756555323, 3, 0,                  !- X,Y,Z Vertex 2 {m}
  3, 3, 0,                                !- X,Y,Z Vertex 3 {m}
  3, 3, 4;                                !- X,Y,Z Vertex 4 {m}

OS:Surface,
  {0c9faa9a-0989-4e54-860f-9a476e2c771f}, !- Handle
  Surface 23,                             !- Name
  Wall,                                   !- Surface Type
  ,                                       !- Construction Name
  {b47fb755-42ab-411b-bc67-ca797cc00441}, !- Space Name
  Surface,                                !- Outside Boundary Condition
  {a42c4660-988d-4707-86cc-04607945f273}, !- Outside Boundary Condition Object
  NoSun,                                  !- Sun Exposure
  NoWind,                                 !- Wind Exposure
  ,                                       !- View Factor to Ground
  ,                                       !- Number of Vertices
  13.228756555323, 0, 4,                  !- X,Y,Z Vertex 1 {m}
  13.228756555323, 0, 0,                  !- X,Y,Z Vertex 2 {m}
  10.228756555323, 3, 0,                  !- X,Y,Z Vertex 3 {m}
  10.228756555323, 3, 4;                  !- X,Y,Z Vertex 4 {m}

OS:Surface,
  {660d89f4-b9f2-4e83-8522-457467e308be}, !- Handle
  Surface 24,                             !- Name
  RoofCeiling,                            !- Surface Type
  ,                                       !- Construction Name
  {b47fb755-42ab-411b-bc67-ca797cc00441}, !- Space Name
  Outdoors,                               !- Outside Boundary Condition
  ,                                       !- Outside Boundary Condition Object
  SunExposed,                             !- Sun Exposure
  WindExposed,                            !- Wind Exposure
  ,                                       !- View Factor to Ground
  ,                                       !- Number of Vertices
  10.228756555323, 3, 4,                  !- X,Y,Z Vertex 1 {m}
  3, 3, 4,                                !- X,Y,Z Vertex 2 {m}
  0, 0, 4,                                !- X,Y,Z Vertex 3 {m}
  13.228756555323, 0, 4;                  !- X,Y,Z Vertex 4 {m}

OS:Space,
  {3fe453fe-1b34-485d-a39c-1cc6d90fba06}, !- Handle
  Story 1 Core Space,                     !- Name
  ,                                       !- Space Type Name
  ,                                       !- Default Construction Set Name
  ,                                       !- Default Schedule Set Name
  -0,                                     !- Direction of Relative North {deg}
  3,                                      !- X Origin {m}
  3,                                      !- Y Origin {m}
  0,                                      !- Z Origin {m}
  {af415d7c-246f-4d8a-9e68-bc39b08f5034}, !- Building Story Name
  {4fd0f766-3265-478c-b2ad-1d53606f0cd6}; !- Thermal Zone Name

OS:Surface,
  {8c4967ca-c227-4524-a31a-5975b9648344}, !- Handle
  Surface 25,                             !- Name
  Floor,                                  !- Surface Type
  ,                                       !- Construction Name
  {3fe453fe-1b34-485d-a39c-1cc6d90fba06}, !- Space Name
  Ground,                                 !- Outside Boundary Condition
  ,                                       !- Outside Boundary Condition Object
  NoSun,                                  !- Sun Exposure
  NoWind,                                 !- Wind Exposure
  ,                                       !- View Factor to Ground
  ,                                       !- Number of Vertices
  0, 0, 0,                                !- X,Y,Z Vertex 1 {m}
  0, 7.228756555323, 0,                   !- X,Y,Z Vertex 2 {m}
  7.228756555323, 7.228756555323, 0,      !- X,Y,Z Vertex 3 {m}
  7.228756555323, 0, 0;                   !- X,Y,Z Vertex 4 {m}

OS:Surface,
  {bc452465-7037-423c-bb6e-2590ff75ef9c}, !- Handle
  Surface 26,                             !- Name
  Wall,                                   !- Surface Type
  ,                                       !- Construction Name
  {3fe453fe-1b34-485d-a39c-1cc6d90fba06}, !- Space Name
  Surface,                                !- Outside Boundary Condition
  {18210f1b-b7b0-492f-8fd6-fcb70fbbf2e3}, !- Outside Boundary Condition Object
  NoSun,                                  !- Sun Exposure
  NoWind,                                 !- Wind Exposure
  ,                                       !- View Factor to Ground
  ,                                       !- Number of Vertices
  0, 7.228756555323, 4,                   !- X,Y,Z Vertex 1 {m}
  0, 7.228756555323, 0,                   !- X,Y,Z Vertex 2 {m}
  0, 0, 0,                                !- X,Y,Z Vertex 3 {m}
  0, 0, 4;                                !- X,Y,Z Vertex 4 {m}

OS:Surface,
  {f6709e5b-6562-4d48-a598-0f70d3554956}, !- Handle
  Surface 27,                             !- Name
  Wall,                                   !- Surface Type
  ,                                       !- Construction Name
  {3fe453fe-1b34-485d-a39c-1cc6d90fba06}, !- Space Name
  Surface,                                !- Outside Boundary Condition
  {035e4d59-d0cb-4b44-b2ae-2a7fe5d653a1}, !- Outside Boundary Condition Object
  NoSun,                                  !- Sun Exposure
  NoWind,                                 !- Wind Exposure
  ,                                       !- View Factor to Ground
  ,                                       !- Number of Vertices
  7.228756555323, 7.228756555323, 4,      !- X,Y,Z Vertex 1 {m}
  7.228756555323, 7.228756555323, 0,      !- X,Y,Z Vertex 2 {m}
  0, 7.228756555323, 0,                   !- X,Y,Z Vertex 3 {m}
  0, 7.228756555323, 4;                   !- X,Y,Z Vertex 4 {m}

OS:Surface,
  {1bc9b253-d661-41f4-848a-4bc12beb8551}, !- Handle
  Surface 28,                             !- Name
  Wall,                                   !- Surface Type
  ,                                       !- Construction Name
  {3fe453fe-1b34-485d-a39c-1cc6d90fba06}, !- Space Name