
OS:Version,
  {3ecaf75b-2aa1-429f-8cfc-4ee4b05709fd}, !- Handle
  0.10.0;                                 !- Version Identifier

OS:BuildingStory,
  {08c4c564-a3d6-44b8-8f56-ff174faf5742}, !- Handle
  Story 1,                                !- Name
  0,                                      !- Nominal Z Coordinate {m}
  4,                                      !- Nominal Floor to Floor Height {m}
  ,                                       !- Default Construction Set Name
  ,                                       !- Default Schedule Set Name
  ;                                       !- Group Rendering Name

OS:Space,
  {3ac4a6c6-a006-4fb7-81bc-7a6fb9ad434c}, !- Handle
  Story 1 West Perimeter Space,           !- Name
  ,                                       !- Space Type Name
  ,                                       !- Default Construction Set Name
  ,                                       !- Default Schedule Set Name
  -0,                                     !- Direction of Relative North {deg}
  0,                                      !- X Origin {m}
  0,                                      !- Y Origin {m}
  0,                                      !- Z Origin {m}
  {08c4c564-a3d6-44b8-8f56-ff174faf5742}, !- Building Story Name
  {8910a335-b8a0-4db7-979e-8c3b75db7c20}; !- Thermal Zone Name

OS:Surface,
  {45bb5804-d3ed-42ec-88b4-06ad8bedfcb6}, !- Handle
  Surface 1,                              !- Name
  Floor,                                  !- Surface Type
  ,                                       !- Construction Name
  {3ac4a6c6-a006-4fb7-81bc-7a6fb9ad434c}, !- Space Name
  Ground,                                 !- Outside Boundary Condition
  ,                                       !- Outside Boundary Condition Object
  NoSun,                                  !- Sun Exposure
  NoWind,                                 !- Wind Exposure
  ,                                       !- View Factor to Ground
  ,                                       !- Number of Vertices
  0, 0, 0,                                !- X,Y,Z Vertex 1 {m}
  0, 13.228756555323, 0,                  !- X,Y,Z Vertex 2 {m}
  3, 10.228756555323, 0,                  !- X,Y,Z Vertex 3 {m}
  3, 3, 0;                                !- X,Y,Z Vertex 4 {m}

OS:Surface,
  {50acd0ee-b530-4111-aaae-155dbefb9ce8}, !- Handle
  Surface 2,                              !- Name
  Wall,                                   !- Surface Type
  ,                                       !- Construction Name
  {3ac4a6c6-a006-4fb7-81bc-7a6fb9ad434c}, !- Space Name
  Outdoors,                               !- Outside Boundary Condition
  ,                                       !- Outside Boundary Condition Object
  SunExposed,                             !- Sun Exposure
  WindExposed,                            !- Wind Exposure
  ,                                       !- View Factor to Ground
  ,                                       !- Number of Vertices
  0, 13.228756555323, 4,                  !- X,Y,Z Vertex 1 {m}
  0, 13.228756555323, 0,                  !- X,Y,Z Vertex 2 {m}
  0, 0, 0,                                !- X,Y,Z Vertex 3 {m}
  0, 0, 4;                                !- X,Y,Z Vertex 4 {m}

OS:Surface,
  {87cbfac6-dbfe-494e-9867-92499e126e61}, !- Handle
  Surface 3,                              !- Name
  Wall,                                   !- Surface Type
  ,                                       !- Construction Name
  {3ac4a6c6-a006-4fb7-81bc-7a6fb9ad434c}, !- Space Name
  Surface,                                !- Outside Boundary Condition
  {2396297b-182b-4be3-87e5-516f9a69243b}, !- Outside Boundary Condition Object
  NoSun,                                  !- Sun Exposure
  NoWind,                                 !- Wind Exposure
  ,                                       !- View Factor to Ground
  ,                                       !- Number of Vertices
  3, 10.228756555323, 4,                  !- X,Y,Z Vertex 1 {m}
  3, 10.228756555323, 0,                  !- X,Y,Z Vertex 2 {m}
  0, 13.228756555323, 0,                  !- X,Y,Z Vertex 3 {m}
  0, 13.228756555323, 4;                  !- X,Y,Z Vertex 4 {m}

OS:Surface,
  {93f165d0-5fe4-468f-83df-0b41111e253b}, !- Handle
  Surface 4,                              !- Name
  Wall,                                   !- Surface Type
  ,                                       !- Construction Name
  {3ac4a6c6-a006-4fb7-81bc-7a6fb9ad434c}, !- Space Name
  Surface,                                !- Outside Boundary Condition
  {535e9803-f341-402d-ae79-23b5ef1b1089}, !- Outside Boundary Condition Object
  NoSun,                                  !- Sun Exposure
  NoWind,                                 !- Wind Exposure
  ,                                       !- View Factor to Ground
  ,                                       !- Number of Vertices
  3, 3, 4,                                !- X,Y,Z Vertex 1 {m}
  3, 3, 0,                                !- X,Y,Z Vertex 2 {m}
  3, 10.228756555323, 0,                  !- X,Y,Z Vertex 3 {m}
  3, 10.228756555323, 4;                  !- X,Y,Z Vertex 4 {m}

OS:Surface,
  {c0e645a1-5877-4112-a2d1-f853da465782}, !- Handle
  Surface 5,                              !- Name
  Wall,                                   !- Surface Type
  ,                                       !- Construction Name
  {3ac4a6c6-a006-4fb7-81bc-7a6fb9ad434c}, !- Space Name
  Surface,                                !- Outside Boundary Condition
  {49834189-027c-4e46-99f2-789cb2eaa140}, !- Outside Boundary Condition Object
  NoSun,                                  !- Sun Exposure
  NoWind,                                 !- Wind Exposure
  ,                                       !- View Factor to Ground
  ,                                       !- Number of Vertices
  0, 0, 4,                                !- X,Y,Z Vertex 1 {m}
  0, 0, 0,                                !- X,Y,Z Vertex 2 {m}
  3, 3, 0,                                !- X,Y,Z Vertex 3 {m}
  3, 3, 4;                                !- X,Y,Z Vertex 4 {m}

OS:Surface,
  {21a408b3-4ac6-40ab-9f80-bb7ebca0912f}, !- Handle
  Surface 6,                              !- Name
  RoofCeiling,                            !- Surface Type
  ,                                       !- Construction Name
  {3ac4a6c6-a006-4fb7-81bc-7a6fb9ad434c}, !- Space Name
  Surface,                                !- Outside Boundary Condition
  {39689dfa-5094-4423-8e1e-51c263cb2495}, !- Outside Boundary Condition Object
  NoSun,                                  !- Sun Exposure
  NoWind,                                 !- Wind Exposure
  ,                                       !- View Factor to Ground
  ,                                       !- Number of Vertices
  3, 3, 4,                                !- X,Y,Z Vertex 1 {m}
  3, 10.228756555323, 4,                  !- X,Y,Z Vertex 2 {m}
  0, 13.228756555323, 4,                  !- X,Y,Z Vertex 3 {m}
  0, 0, 4;                                !- X,Y,Z Vertex 4 {m}

OS:Space,
  {c5c294a3-caa5-4c87-b05a-e30c1d68d474}, !- Handle
  Story 1 North Perimeter Space,          !- Name
  ,                                       !- Space Type Name
  ,                                       !- Default Construction Set Name
  ,                                       !- Default Schedule Set Name
  -0,                                     !- Direction of Relative North {deg}
  3,                                      !- X Origin {m}
  10.228756555323,                        !- Y Origin {m}
  0,                                      !- Z Origin {m}
  {08c4c564-a3d6-44b8-8f56-ff174faf5742}, !- Building Story Name
  {0fb6973d-2baa-4bca-8c3f-baedccbb03cf}; !- Thermal Zone Name

OS:Surface,
  {760781c2-6051-4ab9-adcf-8c7802ee3254}, !- Handle
  Surface 7,                              !- Name
  Floor,                                  !- Surface Type
  ,                                       !- Construction Name
  {c5c294a3-caa5-4c87-b05a-e30c1d68d474}, !- Space Name
  Ground,                                 !- Outside Boundary Condition
  ,                                       !- Outside Boundary Condition Object
  NoSun,                                  !- Sun Exposure
  NoWind,                                 !- Wind Exposure
  ,                                       !- View Factor to Ground
  ,                                       !- Number of Vertices
  -3, 3.00000000000005, 0,                !- X,Y,Z Vertex 1 {m}
  10.228756555323, 3.00000000000005, 0,   !- X,Y,Z Vertex 2 {m}
  7.228756555323, 4.79616346638068e-14, 0, !- X,Y,Z Vertex 3 {m}
  0, 4.79616346638068e-14, 0;             !- X,Y,Z Vertex 4 {m}

OS:Surface,
  {c15e41e9-bc28-4094-803e-ccd37b4282f8}, !- Handle
  Surface 8,                              !- Name
  Wall,                                   !- Surface Type
  ,                                       !- Construction Name
  {c5c294a3-caa5-4c87-b05a-e30c1d68d474}, !- Space Name
  Outdoors,                               !- Outside Boundary Condition
  ,                                       !- Outside Boundary Condition Object
  SunExposed,                             !- Sun Exposure
  WindExposed,                            !- Wind Exposure
  ,                                       !- View Factor to Ground
  ,                                       !- Number of Vertices
  10.228756555323, 3.00000000000005, 4,   !- X,Y,Z Vertex 1 {m}
  10.228756555323, 3.00000000000005, 0,   !- X,Y,Z Vertex 2 {m}
  -3, 3.00000000000005, 0,                !- X,Y,Z Vertex 3 {m}
  -3, 3.00000000000005, 4;                !- X,Y,Z Vertex 4 {m}

OS:Surface,
  {99f02a6f-cfac-42a7-83e5-fa09ffc32395}, !- Handle
  Surface 9,                              !- Name
  Wall,                                   !- Surface Type
  ,                                       !- Construction Name
  {c5c294a3-caa5-4c87-b05a-e30c1d68d474}, !- Space Name
  Surface,                                !- Outside Boundary Condition
  {add2d2a1-49b9-4752-9e27-1f87bd463706}, !- Outside Boundary Condition Object
  NoSun,                                  !- Sun Exposure
  NoWind,                                 !- Wind Exposure
  ,                                       !- View Factor to Ground
  ,                                       !- Number of Vertices
  7.228756555323, 4.79616346638068e-14, 4, !- X,Y,Z Vertex 1 {m}
  7.228756555323, 4.79616346638068e-14, 0, !- X,Y,Z Vertex 2 {m}
  10.228756555323, 3.00000000000005, 0,   !- X,Y,Z Vertex 3 {m}
  10.228756555323, 3.00000000000005, 4;   !- X,Y,Z Vertex 4 {m}

OS:Surface,
  {b464c5f7-cff8-404e-a7a9-38297c879d7d}, !- Handle
  Surface 10,                             !- Name
  Wall,                                   !- Surface Type
  ,                                       !- Construction Name
  {c5c294a3-caa5-4c87-b05a-e30c1d68d474}, !- Space Name
  Surface,                                !- Outside Boundary Condition
  {55296355-d77d-4d73-a633-bed407e020de}, !- Outside Boundary Condition Object
  NoSun,                                  !- Sun Exposure
  NoWind,                                 !- Wind Exposure
  ,                                       !- View Factor to Ground
  ,                                       !- Number of Vertices
  0, 4.79616346638068e-14, 4,             !- X,Y,Z Vertex 1 {m}
  0, 4.79616346638068e-14, 0,             !- X,Y,Z Vertex 2 {m}
  7.228756555323, 4.79616346638068e-14, 0, !- X,Y,Z Vertex 3 {m}
  7.228756555323, 4.79616346638068e-14, 4; !- X,Y,Z Vertex 4 {m}

OS:Surface,
  {2396297b-182b-4be3-87e5-516f9a69243b}, !- Handle
  Surface 11,                             !- Name
  Wall,                                   !- Surface Type
  ,                                       !- Construction Name
  {c5c294a3-caa5-4c87-b05a-e30c1d68d474}, !- Space Name
  Surface,                                !- Outside Boundary Condition
  {87cbfac6-dbfe-494e-9867-92499e126e61}, !- Outside Boundary Condition Object
  NoSun,                                  !- Sun Exposure
  NoWind,                                 !- Wind Exposure
  ,                                       !- View Factor to Ground
  ,                                       !- Number of Vertices
  -3, 3.00000000000005, 4,                !- X,Y,Z Vertex 1 {m}
  -3, 3.00000000000005, 0,                !- X,Y,Z Vertex 2 {m}
  0, 4.79616346638068e-14, 0,             !- X,Y,Z Vertex 3 {m}
  0, 4.79616346638068e-14, 4;             !- X,Y,Z Vertex 4 {m}

OS:Surface,
  {afcf92aa-539e-4257-a6e8-d85f99397141}, !- Handle
  Surface 12,                             !- Name
  RoofCeiling,                            !- Surface Type
  ,                                       !- Construction Name
  {c5c294a3-caa5-4c87-b05a-e30c1d68d474}, !- Space Name
  Surface,                                !- Outside Boundary Condition
  {f4a29a57-8d5a-4bb7-aed5-17408b9058d3}, !- Outside Boundary Condition Object
  NoSun,                                  !- Sun Exposure
  NoWind,                                 !- Wind Exposure
  ,                                       !- View Factor to Ground
  ,                                       !- Number of Vertices
  0, 4.79616346638068e-14, 4,             !- X,Y,Z Vertex 1 {m}
  7.228756555323, 4.79616346638068e-14, 4, !- X,Y,Z Vertex 2 {m}
  10.228756555323, 3.00000000000005, 4,   !- X,Y,Z Vertex 3 {m}
  -3, 3.00000000000005, 4;                !- X,Y,Z Vertex 4 {m}

OS:Space,
  {24ce56df-aaa0-4a91-9ec2-657a7c0ac03c}, !- Handle
  Story 1 East Perimeter Space,           !- Name
  ,                                       !- Space Type Name
  ,                                       !- Default Construction Set Name
  ,                                       !- Default Schedule Set Name
  -0,                                     !- Direction of Relative North {deg}
  10.228756555323,                        !- X Origin {m}
  3,                                      !- Y Origin {m}
  0,                                      !- Z Origin {m}
  {08c4c564-a3d6-44b8-8f56-ff174faf5742}, !- Building Story Name
  {a2d95b85-cde9-4b3c-bc4c-c80cc1221c51}; !- Thermal Zone Name

OS:Surface,
  {89cf5743-0ba4-49fc-88c0-45aadfa96800}, !- Handle
  Surface 13,                             !- Name
  Floor,                                  !- Surface Type
  ,                                       !- Construction Name
  {24ce56df-aaa0-4a91-9ec2-657a7c0ac03c}, !- Space Name
  Ground,                                 !- Outside Boundary Condition
  ,                                       !- Outside Boundary Condition Object
  NoSun,                                  !- Sun Exposure
  NoWind,                                 !- Wind Exposure
  ,                                       !- View Factor to Ground
  ,                                       !- Number of Vertices
  3.00000000000005, 10.228756555323, 0,   !- X,Y,Z Vertex 1 {m}
  3.00000000000005, -3, 0,                !- X,Y,Z Vertex 2 {m}
  4.79616346638068e-14, 0, 0,             !- X,Y,Z Vertex 3 {m}
  4.79616346638068e-14, 7.228756555323, 0; !- X,Y,Z Vertex 4 {m}

OS:Surface,
  {75070048-c612-4197-94ea-a0e5908bceab}, !- Handle
  Surface 14,                             !- Name
  Wall,                                   !- Surface Type
  ,                                       !- Construction Name
  {24ce56df-aaa0-4a91-9ec2-657a7c0ac03c}, !- Space Name
  Outdoors,                               !- Outside Boundary Condition
  ,                                       !- Outside Boundary Condition Object
  SunExposed,                             !- Sun Exposure
  WindExposed,                            !- Wind Exposure
  ,                                       !- View Factor to Ground
  ,                                       !- Number of Vertices
  3.00000000000005, -3, 4,                !- X,Y,Z Vertex 1 {m}
  3.00000000000005, -3, 0,                !- X,Y,Z Vertex 2 {m}
  3.00000000000005, 10.228756555323, 0,   !- X,Y,Z Vertex 3 {m}
  3.00000000000005, 10.228756555323, 4;   !- X,Y,Z Vertex 4 {m}

OS:Surface,
  {6ed6678d-6eac-4cc8-8e1f-1ddd257f098b}, !- Handle
  Surface 15,                             !- Name
  Wall,                                   !- Surface Type
  ,                                       !- Construction Name
  {24ce56df-aaa0-4a91-9ec2-657a7c0ac03c}, !- Space Name
  Surface,                                !- Outside Boundary Condition
  {8e621e17-4b8e-436a-9f92-1e097e3d6cce}, !- Outside Boundary Condition Object
  NoSun,                                  !- Sun Exposure
  NoWind,                                 !- Wind Exposure
  ,                                       !- View Factor to Ground
  ,                                       !- Number of Vertices
  4.79616346638068e-14, 0, 4,             !- X,Y,Z Vertex 1 {m}
  4.79616346638068e-14, 0, 0,             !- X,Y,Z Vertex 2 {m}
  3.00000000000005, -3, 0,                !- X,Y,Z Vertex 3 {m}
  3.00000000000005, -3, 4;                !- X,Y,Z Vertex 4 {m}

OS:Surface,
  {655731bd-e066-4f50-829b-d9e5657a6a63}, !- Handle
  Surface 16,                             !- Name
  Wall,                                   !- Surface Type
  ,                                       !- Construction Name
  {24ce56df-aaa0-4a91-9ec2-657a7c0ac03c}, !- Space Name
  Surface,                                !- Outside Boundary Condition
  {68066015-73c1-45fb-9482-33ca818f3155}, !- Outside Boundary Condition Object
  NoSun,                                  !- Sun Exposure
  NoWind,                                 !- Wind Exposure
  ,                                       !- View Factor to Ground
  ,                                       !- Number of Vertices
  4.79616346638068e-14, 7.228756555323, 4, !- X,Y,Z Vertex 1 {m}
  4.79616346638068e-14, 7.228756555323, 0, !- X,Y,Z Vertex 2 {m}
  4.79616346638068e-14, 0, 0,             !- X,Y,Z Vertex 3 {m}
  4.79616346638068e-14, 0, 4;             !- X,Y,Z Vertex 4 {m}

OS:Surface,
  {add2d2a1-49b9-4752-9e27-1f87bd463706}, !- Handle
  Surface 17,                             !- Name
  Wall,                                   !- Surface Type
  ,                                       !- Construction Name
  {24ce56df-aaa0-4a91-9ec2-657a7c0ac03c}, !- Space Name
  Surface,                                !- Outside Boundary Condition
  {99f02a6f-cfac-42a7-83e5-fa09ffc32395}, !- Outside Boundary Condition Object
  NoSun,                                  !- Sun Exposure
  NoWind,                                 !- Wind Exposure
  ,                                       !- View Factor to Ground
  ,                                       !- Number of Vertices
  3.00000000000005, 10.228756555323, 4,   !- X,Y,Z Vertex 1 {m}
  3.00000000000005, 10.228756555323, 0,   !- X,Y,Z Vertex 2 {m}
  4.79616346638068e-14, 7.228756555323, 0, !- X,Y,Z Vertex 3 {m}
  4.79616346638068e-14, 7.228756555323, 4; !- X,Y,Z Vertex 4 {m}

OS:Surface,
  {5269fe96-82cd-4e58-b523-f3ec41042021}, !- Handle
  Surface 18,                             !- Name
  RoofCeiling,                            !- Surface Type
  ,                                       !- Construction Name
  {24ce56df-aaa0-4a91-9ec2-657a7c0ac03c}, !- Space Name
  Surface,                                !- Outside Boundary Condition
  {5e8ca2b4-47fd-4871-a128-1c61a7a30607}, !- Outside Boundary Condition Object
  NoSun,                                  !- Sun Exposure
  NoWind,                                 !- Wind Exposure
  ,                                       !- View Factor to Ground
  ,                                       !- Number of Vertices
  4.79616346638068e-14, 7.228756555323, 4, !- X,Y,Z Vertex 1 {m}
  4.79616346638068e-14, 0, 4,             !- X,Y,Z Vertex 2 {m}
  3.00000000000005, -3, 4,                !- X,Y,Z Vertex 3 {m}
  3.00000000000005, 10.228756555323, 4;   !- X,Y,Z Vertex 4 {m}

OS:Space,
  {ea126d4e-0bce-4480-b6de-e8cd20dac5e1}, !- Handle
  Story 1 South Perimeter Space,          !- Name
  ,                                       !- Space Type Name
  ,                                       !- Default Construction Set Name
  ,                                       !- Default Schedule Set Name
  -0,                                     !- Direction of Relative North {deg}
  0,                                      !- X Origin {m}
  0,                                      !- Y Origin {m}
  0,                                      !- Z Origin {m}
  {08c4c564-a3d6-44b8-8f56-ff174faf5742}, !- Building Story Name
  {041384e2-c13b-4da8-a62e-2d1c620d1dfc}; !- Thermal Zone Name

OS:Surface,
  {c48d59c2-8875-4351-8b00-4ad95004b901}, !- Handle
  Surface 19,                             !- Name
  Floor,                                  !- Surface Type
  ,                                       !- Construction Name
  {ea126d4e-0bce-4480-b6de-e8cd20dac5e1}, !- Space Name
  Ground,                                 !- Outside Boundary Condition
  ,                                       !- Outside Boundary Condition Object
  NoSun,                                  !- Sun Exposure
  NoWind,                                 !- Wind Exposure
  ,                                       !- View Factor to Ground
  ,                                       !- Number of Vertices
  13.228756555323, 0, 0,                  !- X,Y,Z Vertex 1 {m}
  0, 0, 0,                                !- X,Y,Z Vertex 2 {m}
  3, 3, 0,                                !- X,Y,Z Vertex 3 {m}
  10.228756555323, 3, 0;                  !- X,Y,Z Vertex 4 {m}

OS:Surface,
  {0420b015-5d67-4729-805e-567a36cf426d}, !- Handle
  Surface 20,                             !- Name
  Wall,                                   !- Surface Type
  ,                                       !- Construction Name
  {ea126d4e-0bce-4480-b6de-e8cd20dac5e1}, !- Space Name
  Outdoors,                               !- Outside Boundary Condition
  ,                                       !- Outside Boundary Condition Object
  SunExposed,                             !- Sun Exposure
  WindExposed,                            !- Wind Exposure
  ,                                       !- View Factor to Ground
  ,                                       !- Number of Vertices
  0, 0, 4,                                !- X,Y,Z Vertex 1 {m}
  0, 0, 0,                                !- X,Y,Z Vertex 2 {m}
  13.228756555323, 0, 0,                  !- X,Y,Z Vertex 3 {m}
  13.228756555323, 0, 4;                  !- X,Y,Z Vertex 4 {m}

OS:Surface,
  {49834189-027c-4e46-99f2-789cb2eaa140}, !- Handle
  Surface 21,                             !- Name
  Wall,                                   !- Surface Type
  ,                                       !- Construction Name
  {ea126d4e-0bce-4480-b6de-e8cd20dac5e1}, !- Space Name
  Surface,                                !- Outside Boundary Condition
  {c0e645a1-5877-4112-a2d1-f853da465782}, !- Outside Boundary Condition Object
  NoSun,                                  !- Sun Exposure
  NoWind,                                 !- Wind Exposure
  ,                                       !- View Factor to Ground
  ,                                       !- Number of Vertices
  3, 3, 4,                                !- X,Y,Z Vertex 1 {m}
  3, 3, 0,                                !- X,Y,Z Vertex 2 {m}
  0, 0, 0,                                !- X,Y,Z Vertex 3 {m}
  0, 0, 4;                                !- X,Y,Z Vertex 4 {m}

OS:Surface,
  {a2361c84-97e6-40de-8520-ccacf8615dfe}, !- Handle
  Surface 22,                             !- Name
  Wall,                                   !- Surface Type
  ,                                       !- Construction Name
  {ea126d4e-0bce-4480-b6de-e8cd20dac5e1}, !- Space Name
  Surface,                                !- Outside Boundary Condition
  {bd616f94-5525-4368-80bf-b50e8d9298fe}, !- Outside Boundary Condition Object
  NoSun,                                  !- Sun Exposure
  NoWind,                                 !- Wind Exposure
  ,                                       !- View Factor to Ground
  ,                                       !- Number of Vertices
  10.228756555323, 3, 4,                  !- X,Y,Z Vertex 1 {m}
  10.228756555323, 3, 0,                  !- X,Y,Z Vertex 2 {m}
  3, 3, 0,                                !- X,Y,Z Vertex 3 {m}
  3, 3, 4;                                !- X,Y,Z Vertex 4 {m}

OS:Surface,
  {8e621e17-4b8e-436a-9f92-1e097e3d6cce}, !- Handle
  Surface 23,                             !- Name
  Wall,                                   !- Surface Type
  ,                                       !- Construction Name
  {ea126d4e-0bce-4480-b6de-e8cd20dac5e1}, !- Space Name
  Surface,                                !- Outside Boundary Condition
  {6ed6678d-6eac-4cc8-8e1f-1ddd257f098b}, !- Outside Boundary Condition Object
  NoSun,                                  !- Sun Exposure
  NoWind,                                 !- Wind Exposure
  ,                                       !- View Factor to Ground
  ,                                       !- Number of Vertices
  13.228756555323, 0, 4,                  !- X,Y,Z Vertex 1 {m}
  13.228756555323, 0, 0,                  !- X,Y,Z Vertex 2 {m}
  10.228756555323, 3, 0,                  !- X,Y,Z Vertex 3 {m}
  10.228756555323, 3, 4;                  !- X,Y,Z Vertex 4 {m}

OS:Surface,
  {fe3dccbd-e7a5-403c-9118-fd89c7c63287}, !- Handle
  Surface 24,                             !- Name
  RoofCeiling,                            !- Surface Type
  ,                                       !- Construction Name
  {ea126d4e-0bce-4480-b6de-e8cd20dac5e1}, !- Space Name
  Surface,                                !- Outside Boundary Condition
  {e3b9604b-197e-4800-abea-cf4664290ae0}, !- Outside Boundary Condition Object
  NoSun,                                  !- Sun Exposure
  NoWind,                                 !- Wind Exposure
  ,                                       !- View Factor to Ground
  ,                                       !- Number of Vertices
  10.228756555323, 3, 4,                  !- X,Y,Z Vertex 1 {m}
  3, 3, 4,                                !- X,Y,Z Vertex 2 {m}
  0, 0, 4,                                !- X,Y,Z Vertex 3 {m}
  13.228756555323, 0, 4;                  !- X,Y,Z Vertex 4 {m}

OS:Space,
  {e334f5aa-164d-4234-81e1-b5c08317806c}, !- Handle
  Story 1 Core Space,                     !- Name
  ,                                       !- Space Type Name
  ,                                       !- Default Construction Set Name
  ,                                       !- Default Schedule Set Name
  -0,                                     !- Direction of Relative North {deg}
  3,                                      !- X Origin {m}
  3,                                      !- Y Origin {m}
  0,                                      !- Z Origin {m}
  {08c4c564-a3d6-44b8-8f56-ff174faf5742}, !- Building Story Name
  {79b40873-fb74-472a-9dfa-f007f21a307b}; !- Thermal Zone Name

OS:Surface,
  {27811736-f9f1-4559-a59f-9d1f299758d4}, !- Handle
  Surface 25,                             !- Name
  Floor,                                  !- Surface Type
  ,                                       !- Construction Name
  {e334f5aa-164d-4234-81e1-b5c08317806c}, !- Space Name
  Ground,                                 !- Outside Boundary Condition
  ,                                       !- Outside Boundary Condition Object
  NoSun,                                  !- Sun Exposure
  NoWind,                                 !- Wind Exposure
  ,                                       !- View Factor to Ground
  ,                                       !- Number of Vertices
  0, 0, 0,                                !- X,Y,Z Vertex 1 {m}
  0, 7.228756555323, 0,                   !- X,Y,Z Vertex 2 {m}
  7.228756555323, 7.228756555323, 0,      !- X,Y,Z Vertex 3 {m}
  7.228756555323, 0, 0;                   !- X,Y,Z Vertex 4 {m}

OS:Surface,
  {535e9803-f341-402d-ae79-23b5ef1b1089}, !- Handle
  Surface 26,                             !- Name
  Wall,                                   !- Surface Type
  ,                                       !- Construction Name
  {e334f5aa-164d-4234-81e1-b5c08317806c}, !- Space Name
  Surface,                                !- Outside Boundary Condition
  {93f165d0-5fe4-468f-83df-0b41111e253b}, !- Outside Boundary Condition Object
  NoSun,                                  !- Sun Exposure
  NoWind,                                 !- Wind Exposure
  ,                                       !- View Factor to Ground
  ,                                       !- Number of Vertices
  0, 7.228756555323, 4,                   !- X,Y,Z Vertex 1 {m}
  0, 7.228756555323, 0,                   !- X,Y,Z Vertex 2 {m}
  0, 0, 0,                                !- X,Y,Z Vertex 3 {m}
  0, 0, 4;                                !- X,Y,Z Vertex 4 {m}

OS:Surface,
  {55296355-d77d-4d73-a633-bed407e020de}, !- Handle
  Surface 27,                             !- Name
  Wall,                                   !- Surface Type
  ,                                       !- Construction Name
  {e334f5aa-164d-4234-81e1-b5c08317806c}, !- Space Name
  Surface,                                !- Outside Boundary Condition
  {b464c5f7-cff8-404e-a7a9-38297c879d7d}, !- Outside Boundary Condition Object
  NoSun,                                  !- Sun Exposure
  NoWind,                                 !- Wind Exposure
  ,                                       !- View Factor to Ground
  ,                                       !- Number of Vertices
  7.228756555323, 7.228756555323, 4,      !- X,Y,Z Vertex 1 {m}
  7.228756555323, 7.228756555323, 0,      !- X,Y,Z Vertex 2 {m}
  0, 7.228756555323, 0,                   !- X,Y,Z Vertex 3 {m}
  0, 7.228756555323, 4;                   !- X,Y,Z Vertex 4 {m}

OS:Surface,
  {68066015-73c1-45fb-9482-33ca818f3155}, !- Handle
  Surface 28,                             !- Name
  Wall,                                   !- Surface Type
  ,                                       !- Construction Name
  {e334f5aa-164d-4234-81e1-b5c08317806c}, !- Space Name