
OS:Version,
  {619cf17f-cb94-4a10-a821-1046c6b0b1ec}, !- Handle
  0.10.0;                                 !- Version Identifier

OS:BuildingStory,
  {291581fe-e674-4f26-aad4-105cf961b1ae}, !- Handle
  Story 1,                                !- Name
  0,                                      !- Nominal Z Coordinate {m}
  4,                                      !- Nominal Floor to Floor Height {m}
  ,                                       !- Default Construction Set Name
  ,                                       !- Default Schedule Set Name
  ;                                       !- Group Rendering Name

OS:Space,
  {2e220727-244a-4e3f-9d85-d3f2c333254f}, !- Handle
  Story 1 West Perimeter Space,           !- Name
  ,                                       !- Space Type Name
  ,                                       !- Default Construction Set Name
  ,                                       !- Default Schedule Set Name
  -0,                                     !- Direction of Relative North {deg}
  0,                                      !- X Origin {m}
  0,                                      !- Y Origin {m}
  0,                                      !- Z Origin {m}
  {291581fe-e674-4f26-aad4-105cf961b1ae}, !- Building Story Name
  {b97acdae-79af-45b4-b283-073abf60b7f6}; !- Thermal Zone Name

OS:Surface,
  {98c5da8b-f66d-4107-a66a-77169efc58a6}, !- Handle
  Surface 1,                              !- Name
  Floor,                                  !- Surface Type
  ,                                       !- Construction Name
  {2e220727-244a-4e3f-9d85-d3f2c333254f}, !- Space Name
  Ground,                                 !- Outside Boundary Condition
  ,                                       !- Outside Boundary Condition Object
  NoSun,                                  !- Sun Exposure
  NoWind,                                 !- Wind Exposure
  ,                                       !- View Factor to Ground
  ,                                       !- Number of Vertices
  0, 0, 0,                                !- X,Y,Z Vertex 1 {m}
  0, 9.68245836551854, 0,                 !- X,Y,Z Vertex 2 {m}
  3, 6.68245836551854, 0,                 !- X,Y,Z Vertex 3 {m}
  3, 3, 0;                                !- X,Y,Z Vertex 4 {m}

OS:Surface,
  {98ad7c33-c589-45cf-8766-c98fd70644d2}, !- Handle
  Surface 2,                              !- Name
  Wall,                                   !- Surface Type
  ,                                       !- Construction Name
  {2e220727-244a-4e3f-9d85-d3f2c333254f}, !- Space Name
  Outdoors,                               !- Outside Boundary Condition
  ,                                       !- Outside Boundary Condition Object
  SunExposed,                             !- Sun Exposure
  WindExposed,                            !- Wind Exposure
  ,                                       !- View Factor to Ground
  ,                                       !- Number of Vertices
  0, 9.68245836551854, 4,                 !- X,Y,Z Vertex 1 {m}
  0, 9.68245836551854, 0,                 !- X,Y,Z Vertex 2 {m}
  0, 0, 0,                                !- X,Y,Z Vertex 3 {m}
  0, 0, 4;                                !- X,Y,Z Vertex 4 {m}

OS:Surface,
  {0a3df4c5-6609-4481-8eae-400e690ca9fe}, !- Handle
  Surface 3,                              !- Name
  Wall,                                   !- Surface Type
  ,                                       !- Construction Name
  {2e220727-244a-4e3f-9d85-d3f2c333254f}, !- Space Name
  Surface,                                !- Outside Boundary Condition
  {e19935d6-60aa-45a5-b183-9f64a6cb7427}, !- Outside Boundary Condition Object
  NoSun,                                  !- Sun Exposure
  NoWind,                                 !- Wind Exposure
  ,                                       !- View Factor to Ground
  ,                                       !- Number of Vertices
  3, 6.68245836551854, 4,                 !- X,Y,Z Vertex 1 {m}
  3, 6.68245836551854, 0,                 !- X,Y,Z Vertex 2 {m}
  0, 9.68245836551854, 0,                 !- X,Y,Z Vertex 3 {m}
  0, 9.68245836551854, 4;                 !- X,Y,Z Vertex 4 {m}

OS:Surface,
  {4381f81f-15bf-4491-b80f-8f8109618184}, !- Handle
  Surface 4,                              !- Name
  Wall,                                   !- Surface Type
  ,                                       !- Construction Name
  {2e220727-244a-4e3f-9d85-d3f2c333254f}, !- Space Name
  Surface,                                !- Outside Boundary Condition
  {9763382d-4858-4b0f-98d6-fd878f3370cd}, !- Outside Boundary Condition Object
  NoSun,                                  !- Sun Exposure
  NoWind,                                 !- Wind Exposure
  ,                                       !- View Factor to Ground
  ,                                       !- Number of Vertices
  3, 3, 4,                                !- X,Y,Z Vertex 1 {m}
  3, 3, 0,                                !- X,Y,Z Vertex 2 {m}
  3, 6.68245836551854, 0,                 !- X,Y,Z Vertex 3 {m}
  3, 6.68245836551854, 4;                 !- X,Y,Z Vertex 4 {m}

OS:Surface,
  {c9a1caa1-4ca9-4bbc-acc1-787561a44139}, !- Handle
  Surface 5,                              !- Name
  Wall,                                   !- Surface Type
  ,                                       !- Construction Name
  {2e220727-244a-4e3f-9d85-d3f2c333254f}, !- Space Name
  Surface,                                !- Outside Boundary Condition
  {af798f37-af64-4c5b-b72e-07c5108a62b5}, !- Outside Boundary Condition Object
  NoSun,                                  !- Sun Exposure
  NoWind,                                 !- Wind Exposure
  ,                                       !- View Factor to Ground
  ,                                       !- Number of Vertices
  0, 0, 4,                                !- X,Y,Z Vertex 1 {m}
  0, 0, 0,                                !- X,Y,Z Vertex 2 {m}
  3, 3, 0,                                !- X,Y,Z Vertex 3 {m}
  3, 3, 4;                                !- X,Y,Z Vertex 4 {m}

OS:Surface,
  {13895509-0261-4fb1-926a-ec3cf6e100ef}, !- Handle
  Surface 6,                              !- Name
  RoofCeiling,                            !- Surface Type
  ,                                       !- Construction Name
  {2e220727-244a-4e3f-9d85-d3f2c333254f}, !- Space Name
  Surface,                                !- Outside Boundary Condition
  {5575f999-3840-4db8-b389-84d84877d8d6}, !- Outside Boundary Condition Object
  NoSun,                                  !- Sun Exposure
  NoWind,                                 !- Wind Exposure
  ,                                       !- View Factor to Ground
  ,                                       !- Number of Vertices
  3, 3, 4,                                !- X,Y,Z Vertex 1 {m}
  3, 6.68245836551854, 4,                 !- X,Y,Z Vertex 2 {m}
  0, 9.68245836551854, 4,                 !- X,Y,Z Vertex 3 {m}
  0, 0, 4;                                !- X,Y,Z Vertex 4 {m}

OS:Space,
  {3667db6e-05cc-42e5-af66-b738463cafb1}, !- Handle
  Story 1 North Perimeter Space,          !- Name
  ,                                       !- Space Type Name
  ,                                       !- Default Construction Set Name
  ,                                       !- Default Schedule Set Name
  -0,                                     !- Direction of Relative North {deg}
  3,                                      !- X Origin {m}
  6.68245836551854,                       !- Y Origin {m}
  0,                                      !- Z Origin {m}
  {291581fe-e674-4f26-aad4-105cf961b1ae}, !- Building Story Name
  {aee7b29d-c2de-4140-9509-4edf9ac3b2a0}; !- Thermal Zone Name

OS:Surface,
  {4629c763-6e3c-4ad3-b9e9-56ea8d1a12d9}, !- Handle
  Surface 7,                              !- Name
  Floor,                                  !- Surface Type
  ,                                       !- Construction Name
  {3667db6e-05cc-42e5-af66-b738463cafb1}, !- Space Name
  Ground,                                 !- Outside Boundary Condition
  ,                                       !- Outside Boundary Condition Object
  NoSun,                                  !- Sun Exposure
  NoWind,                                 !- Wind Exposure
  ,                                       !- View Factor to Ground
  ,                                       !- Number of Vertices
  -3, 3, 0,                               !- X,Y,Z Vertex 1 {m}
  6.68245836551854, 3, 0,                 !- X,Y,Z Vertex 2 {m}
  3.68245836551854, -1.77635683940025e-15, 0, !- X,Y,Z Vertex 3 {m}
  0, -1.77635683940025e-15, 0;            !- X,Y,Z Vertex 4 {m}

OS:Surface,
  {d64adffb-6830-4084-932f-3be5921ce27f}, !- Handle
  Surface 8,                              !- Name
  Wall,                                   !- Surface Type
  ,                                       !- Construction Name
  {3667db6e-05cc-42e5-af66-b738463cafb1}, !- Space Name
  Outdoors,                               !- Outside Boundary Condition
  ,                                       !- Outside Boundary Condition Object
  SunExposed,                             !- Sun Exposure
  WindExposed,                            !- Wind Exposure
  ,                                       !- View Factor to Ground
  ,                                       !- Number of Vertices
  6.68245836551854, 3, 4,                 !- X,Y,Z Vertex 1 {m}
  6.68245836551854, 3, 0,                 !- X,Y,Z Vertex 2 {m}
  -3, 3, 0,                               !- X,Y,Z Vertex 3 {m}
  -3, 3, 4;                               !- X,Y,Z Vertex 4 {m}

OS:Surface,
  {f4b297ec-a2f3-4bec-9a93-eb3b161b075e}, !- Handle
  Surface 9,                              !- Name
  Wall,                                   !- Surface Type
  ,                                       !- Construction Name
  {3667db6e-05cc-42e5-af66-b738463cafb1}, !- Space Name
  Surface,                                !- Outside Boundary Condition
  {b40f6c42-c8ec-424a-849d-dfbecb95e752}, !- Outside Boundary Condition Object
  NoSun,                                  !- Sun Exposure
  NoWind,                                 !- Wind Exposure
  ,                                       !- View Factor to Ground
  ,                                       !- Number of Vertices
  3.68245836551854, -1.77635683940025e-15, 4, !- X,Y,Z Vertex 1 {m}
  3.68245836551854, -1.77635683940025e-15, 0, !- X,Y,Z Vertex 2 {m}
  6.68245836551854, 3, 0,                 !- X,Y,Z Vertex 3 {m}
  6.68245836551854, 3, 4;                 !- X,Y,Z Vertex 4 {m}

OS:Surface,
  {c5f9245e-96fd-4681-a23f-388dc8b4fb9b}, !- Handle
  Surface 10,                             !- Name
  Wall,                                   !- Surface Type
  ,                                       !- Construction Name
  {3667db6e-05cc-42e5-af66-b738463cafb1}, !- Space Name
  Surface,                                !- Outside Boundary Condition
  {1be56f69-8aee-498a-907d-bd7748c5e1ec}, !- Outside Boundary Condition Object
  NoSun,                                  !- Sun Exposure
  NoWind,                                 !- Wind Exposure
  ,                                       !- View Factor to Ground
  ,                                       !- Number of Vertices
  0, -1.77635683940025e-15, 4,            !- X,Y,Z Vertex 1 {m}
  0, -1.77635683940025e-15, 0,            !- X,Y,Z Vertex 2 {m}
  3.68245836551854, -1.77635683940025e-15, 0, !- X,Y,Z Vertex 3 {m}
  3.68245836551854, -1.77635683940025e-15, 4; !- X,Y,Z Vertex 4 {m}

OS:Surface,
  {e19935d6-60aa-45a5-b183-9f64a6cb7427}, !- Handle
  Surface 11,                             !- Name
  Wall,                                   !- Surface Type
  ,                                       !- Construction Name
  {3667db6e-05cc-42e5-af66-b738463cafb1}, !- Space Name
  Surface,                                !- Outside Boundary Condition
  {0a3df4c5-6609-4481-8eae-400e690ca9fe}, !- Outside Boundary Condition Object
  NoSun,                                  !- Sun Exposure
  NoWind,                                 !- Wind Exposure
  ,                                       !- View Factor to Ground
  ,                                       !- Number of Vertices
  -3, 3, 4,                               !- X,Y,Z Vertex 1 {m}
  -3, 3, 0,                               !- X,Y,Z Vertex 2 {m}
  0, -1.77635683940025e-15, 0,            !- X,Y,Z Vertex 3 {m}
  0, -1.77635683940025e-15, 4;            !- X,Y,Z Vertex 4 {m}

OS:Surface,
  {7e432a6d-1ff3-4b01-87c0-b37a59514cbe}, !- Handle
  Surface 12,                             !- Name
  RoofCeiling,                            !- Surface Type
  ,                                       !- Construction Name
  {3667db6e-05cc-42e5-af66-b738463cafb1}, !- Space Name
  Surface,                                !- Outside Boundary Condition
  {36fed311-bee1-4392-9351-9d2b95f0c0b4}, !- Outside Boundary Condition Object
  NoSun,                                  !- Sun Exposure
  NoWind,                                 !- Wind Exposure
  ,                                       !- View Factor to Ground
  ,                                       !- Number of Vertices
  0, -1.77635683940025e-15, 4,            !- X,Y,Z Vertex 1 {m}
  3.68245836551854, -1.77635683940025e-15, 4, !- X,Y,Z Vertex 2 {m}
  6.68245836551854, 3, 4,                 !- X,Y,Z Vertex 3 {m}
  -3, 3, 4;                               !- X,Y,Z Vertex 4 {m}

OS:Space,
  {f40ea803-291d-408b-96f1-fcdd4105ac24}, !- Handle
  Story 1 East Perimeter Space,           !- Name
  ,                                       !- Space Type Name
  ,                                       !- Default Construction Set Name
  ,                                       !- Default Schedule Set Name
  -0,                                     !- Direction of Relative North {deg}
  6.68245836551854,                       !- X Origin {m}
  3,                                      !- Y Origin {m}
  0,                                      !- Z Origin {m}
  {291581fe-e674-4f26-aad4-105cf961b1ae}, !- Building Story Name
  {e66af212-0f02-4641-bdc0-e236555e2942}; !- Thermal Zone Name

OS:Surface,
  {a57b1ed2-5bf4-467f-843b-53fe1f34b5f6}, !- Handle
  Surface 13,                             !- Name
  Floor,                                  !- Surface Type
  ,                                       !- Construction Name
  {f40ea803-291d-408b-96f1-fcdd4105ac24}, !- Space Name
  Ground,                                 !- Outside Boundary Condition
  ,                                       !- Outside Boundary Condition Object
  NoSun,                                  !- Sun Exposure
  NoWind,                                 !- Wind Exposure
  ,                                       !- View Factor to Ground
  ,                                       !- Number of Vertices
  3, 6.68245836551854, 0,                 !- X,Y,Z Vertex 1 {m}
  3, -3, 0,                               !- X,Y,Z Vertex 2 {m}
  -1.77635683940025e-15, 0, 0,            !- X,Y,Z Vertex 3 {m}
  -1.77635683940025e-15, 3.68245836551854, 0; !- X,Y,Z Vertex 4 {m}

OS:Surface,
  {23d9142a-0afc-4f65-81f1-45a536b43997}, !- Handle
  Surface 14,                             !- Name
  Wall,                                   !- Surface Type
  ,                                       !- Construction Name
  {f40ea803-291d-408b-96f1-fcdd4105ac24}, !- Space Name
  Outdoors,                               !- Outside Boundary Condition
  ,                                       !- Outside Boundary Condition Object
  SunExposed,                             !- Sun Exposure
  WindExposed,                            !- Wind Exposure
  ,                                       !- View Factor to Ground
  ,                                       !- Number of Vertices
  3, -3, 4,                               !- X,Y,Z Vertex 1 {m}
  3, -3, 0,                               !- X,Y,Z Vertex 2 {m}
  3, 6.68245836551854, 0,                 !- X,Y,Z Vertex 3 {m}
  3, 6.68245836551854, 4;                 !- X,Y,Z Vertex 4 {m}

OS:Surface,
  {604aaf6d-0342-4c23-a83c-52e12713e0fd}, !- Handle
  Surface 15,                             !- Name
  Wall,                                   !- Surface Type
  ,                                       !- Construction Name
  {f40ea803-291d-408b-96f1-fcdd4105ac24}, !- Space Name
  Surface,                                !- Outside Boundary Condition
  {69179f8e-a4b9-456e-9789-7e0226c15205}, !- Outside Boundary Condition Object
  NoSun,                                  !- Sun Exposure
  NoWind,                                 !- Wind Exposure
  ,                                       !- View Factor to Ground
  ,                                       !- Number of Vertices
  -1.77635683940025e-15, 0, 4,            !- X,Y,Z Vertex 1 {m}
  -1.77635683940025e-15, 0, 0,            !- X,Y,Z Vertex 2 {m}
  3, -3, 0,                               !- X,Y,Z Vertex 3 {m}
  3, -3, 4;                               !- X,Y,Z Vertex 4 {m}

OS:Surface,
  {9daff9a4-225e-4e16-a877-9ad2b2a991cc}, !- Handle
  Surface 16,                             !- Name
  Wall,                                   !- Surface Type
  ,                                       !- Construction Name
  {f40ea803-291d-408b-96f1-fcdd4105ac24}, !- Space Name
  Surface,                                !- Outside Boundary Condition
  {fbabf023-aeae-4ba2-b595-4a85c4dfe6c9}, !- Outside Boundary Condition Object
  NoSun,                                  !- Sun Exposure
  NoWind,                                 !- Wind Exposure
  ,                                       !- View Factor to Ground
  ,                                       !- Number of Vertices
  -1.77635683940025e-15, 3.68245836551854, 4, !- X,Y,Z Vertex 1 {m}
  -1.77635683940025e-15, 3.68245836551854, 0, !- X,Y,Z Vertex 2 {m}
  -1.77635683940025e-15, 0, 0,            !- X,Y,Z Vertex 3 {m}
  -1.77635683940025e-15, 0, 4;            !- X,Y,Z Vertex 4 {m}

OS:Surface,
  {b40f6c42-c8ec-424a-849d-dfbecb95e752}, !- Handle
  Surface 17,                             !- Name
  Wall,                                   !- Surface Type
  ,                                       !- Construction Name
  {f40ea803-291d-408b-96f1-fcdd4105ac24}, !- Space Name
  Surface,                                !- Outside Boundary Condition
  {f4b297ec-a2f3-4bec-9a93-eb3b161b075e}, !- Outside Boundary Condition Object
  NoSun,                                  !- Sun Exposure
  NoWind,                                 !- Wind Exposure
  ,                                       !- View Factor to Ground
  ,                                       !- Number of Vertices
  3, 6.68245836551854, 4,                 !- X,Y,Z Vertex 1 {m}
  3, 6.68245836551854, 0,                 !- X,Y,Z Vertex 2 {m}
  -1.77635683940025e-15, 3.68245836551854, 0, !- X,Y,Z Vertex 3 {m}
  -1.77635683940025e-15, 3.68245836551854, 4; !- X,Y,Z Vertex 4 {m}

OS:Surface,
  {45fe1ef4-281f-412c-96bb-60eafc38f13d}, !- Handle
  Surface 18,                             !- Name
  RoofCeiling,                            !- Surface Type
  ,                                       !- Construction Name
  {f40ea803-291d-408b-96f1-fcdd4105ac24}, !- Space Name
  Surface,                                !- Outside Boundary Condition
  {282aa1dc-2991-49f1-ad53-949713170229}, !- Outside Boundary Condition Object
  NoSun,                                  !- Sun Exposure
  NoWind,                                 !- Wind Exposure
  ,                                       !- View Factor to Ground
  ,                                       !- Number of Vertices
  -1.77635683940025e-15, 3.68245836551854, 4, !- X,Y,Z Vertex 1 {m}
  -1.77635683940025e-15, 0, 4,            !- X,Y,Z Vertex 2 {m}
  3, -3, 4,                               !- X,Y,Z Vertex 3 {m}
  3, 6.68245836551854, 4;                 !- X,Y,Z Vertex 4 {m}

OS:Space,
  {ee170c46-ac79-4527-941c-42e5b996ceb1}, !- Handle
  Story 1 South Perimeter Space,          !- Name
  ,                                       !- Space Type Name
  ,                                       !- Default Construction Set Name
  ,                                       !- Default Schedule Set Name
  -0,                                     !- Direction of Relative North {deg}
  0,                                      !- X Origin {m}
  0,                                      !- Y Origin {m}
  0,                                      !- Z Origin {m}
  {291581fe-e674-4f26-aad4-105cf961b1ae}, !- Building Story Name
  {1e5ca496-5479-4cbd-8ff7-9bd1d6f36d27}; !- Thermal Zone Name

OS:Surface,
  {c283b7e9-45a8-4f48-afde-97e743e5a711}, !- Handle
  Surface 19,                             !- Name
  Floor,                                  !- Surface Type
  ,                                       !- Construction Name
  {ee170c46-ac79-4527-941c-42e5b996ceb1}, !- Space Name
  Ground,                                 !- Outside Boundary Condition
  ,                                       !- Outside Boundary Condition Object
  NoSun,                                  !- Sun Exposure
  NoWind,                                 !- Wind Exposure
  ,                                       !- View Factor to Ground
  ,                                       !- Number of Vertices
  9.68245836551854, 0, 0,                 !- X,Y,Z Vertex 1 {m}
  0, 0, 0,                                !- X,Y,Z Vertex 2 {m}
  3, 3, 0,                                !- X,Y,Z Vertex 3 {m}
  6.68245836551854, 3, 0;                 !- X,Y,Z Vertex 4 {m}

OS:Surface,
  {1ae2425a-ed4b-4b72-9d5b-a3ac920d7ee7}, !- Handle
  Surface 20,                             !- Name
  Wall,                                   !- Surface Type
  ,                                       !- Construction Name
  {ee170c46-ac79-4527-941c-42e5b996ceb1}, !- Space Name
  Outdoors,                               !- Outside Boundary Condition
  ,                                       !- Outside Boundary Condition Object
  SunExposed,                             !- Sun Exposure
  WindExposed,                            !- Wind Exposure
  ,                                       !- View Factor to Ground
  ,                                       !- Number of Vertices
  0, 0, 4,                                !- X,Y,Z Vertex 1 {m}
  0, 0, 0,                                !- X,Y,Z Vertex 2 {m}
  9.68245836551854, 0, 0,                 !- X,Y,Z Vertex 3 {m}
  9.68245836551854, 0, 4;                 !- X,Y,Z Vertex 4 {m}

OS:Surface,
  {af798f37-af64-4c5b-b72e-07c5108a62b5}, !- Handle
  Surface 21,                             !- Name
  Wall,                                   !- Surface Type
  ,                                       !- Construction Name
  {ee170c46-ac79-4527-941c-42e5b996ceb1}, !- Space Name
  Surface,                                !- Outside Boundary Condition
  {c9a1caa1-4ca9-4bbc-acc1-787561a44139}, !- Outside Boundary Condition Object
  NoSun,                                  !- Sun Exposure
  NoWind,                                 !- Wind Exposure
  ,                                       !- View Factor to Ground
  ,                                       !- Number of Vertices
  3, 3, 4,                                !- X,Y,Z Vertex 1 {m}
  3, 3, 0,                                !- X,Y,Z Vertex 2 {m}
  0, 0, 0,                                !- X,Y,Z Vertex 3 {m}
  0, 0, 4;                                !- X,Y,Z Vertex 4 {m}

OS:Surface,
  {cf6575d6-b111-48a6-af44-41c4f260667a}, !- Handle
  Surface 22,                             !- Name
  Wall,                                   !- Surface Type
  ,                                       !- Construction Name
  {ee170c46-ac79-4527-941c-42e5b996ceb1}, !- Space Name
  Surface,                                !- Outside Boundary Condition
  {865fdf78-12f4-49b9-80c0-832a1dda7b61}, !- Outside Boundary Condition Object
  NoSun,                                  !- Sun Exposure
  NoWind,                                 !- Wind Exposure
  ,                                       !- View Factor to Ground
  ,                                       !- Number of Vertices
  6.68245836551854, 3, 4,                 !- X,Y,Z Vertex 1 {m}
  6.68245836551854, 3, 0,                 !- X,Y,Z Vertex 2 {m}
  3, 3, 0,                                !- X,Y,Z Vertex 3 {m}
  3, 3, 4;                                !- X,Y,Z Vertex 4 {m}

OS:Surface,
  {69179f8e-a4b9-456e-9789-7e0226c15205}, !- Handle
  Surface 23,                             !- Name
  Wall,                                   !- Surface Type
  ,                                       !- Construction Name
  {ee170c46-ac79-4527-941c-42e5b996ceb1}, !- Space Name
  Surface,                                !- Outside Boundary Condition
  {604aaf6d-0342-4c23-a83c-52e12713e0fd}, !- Outside Boundary Condition Object
  NoSun,                                  !- Sun Exposure
  NoWind,                                 !- Wind Exposure
  ,                                       !- View Factor to Ground
  ,                                       !- Number of Vertices
  9.68245836551854, 0, 4,                 !- X,Y,Z Vertex 1 {m}
  9.68245836551854, 0, 0,                 !- X,Y,Z Vertex 2 {m}
  6.68245836551854, 3, 0,                 !- X,Y,Z Vertex 3 {m}
  6.68245836551854, 3, 4;                 !- X,Y,Z Vertex 4 {m}

OS:Surface,
  {4fcff0a4-b7d7-44d6-860e-d33595f1b515}, !- Handle
  Surface 24,                             !- Name
  RoofCeiling,                            !- Surface Type
  ,                                       !- Construction Name
  {ee170c46-ac79-4527-941c-42e5b996ceb1}, !- Space Name
  Surface,                                !- Outside Boundary Condition
  {0ea3bcb6-544f-41db-9ae0-0275f14edcd5}, !- Outside Boundary Condition Object
  NoSun,                                  !- Sun Exposure
  NoWind,                                 !- Wind Exposure
  ,                                       !- View Factor to Ground
  ,                                       !- Number of Vertices
  6.68245836551854, 3, 4,                 !- X,Y,Z Vertex 1 {m}
  3, 3, 4,                                !- X,Y,Z Vertex 2 {m}
  0, 0, 4,                                !- X,Y,Z Vertex 3 {m}
  9.68245836551854, 0, 4;                 !- X,Y,Z Vertex 4 {m}

OS:Space,
  {ead95b59-b5eb-4eba-b882-173aba9e295c}, !- Handle
  Story 1 Core Space,                     !- Name
  ,                                       !- Space Type Name
  ,                                       !- Default Construction Set Name
  ,                                       !- Default Schedule Set Name
  -0,                                     !- Direction of Relative North {deg}
  3,                                      !- X Origin {m}
  3,                                      !- Y Origin {m}
  0,                                      !- Z Origin {m}
  {291581fe-e674-4f26-aad4-105cf961b1ae}, !- Building Story Name
  {e06e7f82-f367-4c00-aa98-ad8d56696e5d}; !- Thermal Zone Name

OS:Surface,
  {edee8aa5-5ac7-4af3-8f8e-453b9e2014ea}, !- Handle
  Surface 25,                             !- Name
  Floor,                                  !- Surface Type
  ,                                       !- Construction Name
  {ead95b59-b5eb-4eba-b882-173aba9e295c}, !- Space Name
  Ground,                                 !- Outside Boundary Condition
  ,                                       !- Outside Boundary Condition Object
  NoSun,                                  !- Sun Exposure
  NoWind,                                 !- Wind Exposure
  ,                                       !- View Factor to Ground
  ,                                       !- Number of Vertices
  0, 0, 0,                                !- X,Y,Z Vertex 1 {m}
  0, 3.68245836551854, 0,                 !- X,Y,Z Vertex 2 {m}
  3.68245836551854, 3.68245836551854, 0,  !- X,Y,Z Vertex 3 {m}
  3.68245836551854, 0, 0;                 !- X,Y,Z Vertex 4 {m}

OS:Surface,
  {9763382d-4858-4b0f-98d6-fd878f3370cd}, !- Handle
  Surface 26,                             !- Name
  Wall,                                   !- Surface Type
  ,                                       !- Construction Name
  {ead95b59-b5eb-4eba-b882-173aba9e295c}, !- Space Name
  Surface,                                !- Outside Boundary Condition
  {4381f81f-15bf-4491-b80f-8f8109618184}, !- Outside Boundary Condition Object
  NoSun,                                  !- Sun Exposure
  NoWind,                                 !- Wind Exposure
  ,                                       !- View Factor to Ground
  ,                                       !- Number of Vertices
  0, 3.68245836551854, 4,                 !- X,Y,Z Vertex 1 {m}
  0, 3.68245836551854, 0,                 !- X,Y,Z Vertex 2 {m}
  0, 0, 0,                                !- X,Y,Z Vertex 3 {m}
  0, 0, 4;                                !- X,Y,Z Vertex 4 {m}

OS:Surface,
  {1be56f69-8aee-498a-907d-bd7748c5e1ec}, !- Handle
  Surface 27,                             !- Name
  Wall,                                   !- Surface Type
  ,                                       !- Construction Name
  {ead95b59-b5eb-4eba-b882-173aba9e295c}, !- Space Name
  Surface,                                !- Outside Boundary Condition
  {c5f9245e-96fd-4681-a23f-388dc8b4fb9b}, !- Outside Boundary Condition Object
  NoSun,                                  !- Sun Exposure
  NoWind,                                 !- Wind Exposure
  ,                                       !- View Factor to Ground
  ,                                       !- Number of Vertices
  3.68245836551854, 3.68245836551854, 4,  !- X,Y,Z Vertex 1 {m}
  3.68245836551854, 3.68245836551854, 0,  !- X,Y,Z Vertex 2 {m}
  0, 3.68245836551854, 0,                 !- X,Y,Z Vertex 3 {m}
  0, 3.68245836551854, 4;                 !- X,Y,Z Vertex 4 {m}

OS:Surface,
  {fbabf023-aeae-4ba2-b595-4a85c4dfe6c9}, !- Handle
  Surface 28,                             !- Name
  Wall,                                   !- Surface Type
  ,                                       !- Construction Name