
OS:Version,
  {50100771-45fd-480c-81bc-e9ec44e57910}, !- Handle
  0.10.0;                                 !- Version Identifier

OS:BuildingStory,
  {8f643ae4-547b-4b4c-a512-e1fd81683320}, !- Handle
  Story 1,                                !- Name
  0,                                      !- Nominal Z Coordinate {m}
  4,                                      !- Nominal Floor to Floor Height {m}
  ,                                       !- Default Construction Set Name
  ,                                       !- Default Schedule Set Name
  ;                                       !- Group Rendering Name

OS:Space,
  {390da32a-19c5-4496-92e6-30d01d960fe0}, !- Handle
  Story 1 West Perimeter Space,           !- Name
  ,                                       !- Space Type Name
  ,                                       !- Default Construction Set Name
  ,                                       !- Default Schedule Set Name
  -0,                                     !- Direction of Relative North {deg}
  0,                                      !- X Origin {m}
  0,                                      !- Y Origin {m}
  0,                                      !- Z Origin {m}
  {8f643ae4-547b-4b4c-a512-e1fd81683320}, !- Building Story Name
  {73b1a6ae-7574-4538-8142-4880ab755bed}; !- Thermal Zone Name

OS:Surface,
  {2f269608-f4b5-4cd6-851c-7c20321e5f9d}, !- Handle
  Surface 1,                              !- Name
  Floor,                                  !- Surface Type
  ,                                       !- Construction Name
  {390da32a-19c5-4496-92e6-30d01d960fe0}, !- Space Name
  Ground,                                 !- Outside Boundary Condition
  ,                                       !- Outside Boundary Condition Object
  NoSun,                                  !- Sun Exposure
  NoWind,                                 !- Wind Exposure
  ,                                       !- View Factor to Ground
  ,                                       !- Number of Vertices
  0, 0, 0,                                !- X,Y,Z Vertex 1 {m}
  0, 11.1803398874989, 0,                 !- X,Y,Z Vertex 2 {m}
  3, 8.18033988749895, 0,                 !- X,Y,Z Vertex 3 {m}
  3, 3, 0;                                !- X,Y,Z Vertex 4 {m}

OS:Surface,
  {6bce403d-98bb-4708-965e-82a07b61926d}, !- Handle
  Surface 2,                              !- Name
  Wall,                                   !- Surface Type
  ,                                       !- Construction Name
  {390da32a-19c5-4496-92e6-30d01d960fe0}, !- Space Name
  Outdoors,                               !- Outside Boundary Condition
  ,                                       !- Outside Boundary Condition Object
  SunExposed,                             !- Sun Exposure
  WindExposed,                            !- Wind Exposure
  ,                                       !- View Factor to Ground
  ,                                       !- Number of Vertices
  0, 11.1803398874989, 4,                 !- X,Y,Z Vertex 1 {m}
  0, 11.1803398874989, 0,                 !- X,Y,Z Vertex 2 {m}
  0, 0, 0,                                !- X,Y,Z Vertex 3 {m}
  0, 0, 4;                                !- X,Y,Z Vertex 4 {m}

OS:Surface,
  {8edb77e3-22da-41d6-973e-c6ba9c10f6c1}, !- Handle
  Surface 3,                              !- Name
  Wall,                                   !- Surface Type
  ,                                       !- Construction Name
  {390da32a-19c5-4496-92e6-30d01d960fe0}, !- Space Name
  Surface,                                !- Outside Boundary Condition
  {b766f9ae-6dcb-4f15-aca2-89b6974092ef}, !- Outside Boundary Condition Object
  NoSun,                                  !- Sun Exposure
  NoWind,                                 !- Wind Exposure
  ,                                       !- View Factor to Ground
  ,                                       !- Number of Vertices
  3, 8.18033988749895, 4,                 !- X,Y,Z Vertex 1 {m}
  3, 8.18033988749895, 0,                 !- X,Y,Z Vertex 2 {m}
  0, 11.1803398874989, 0,                 !- X,Y,Z Vertex 3 {m}
  0, 11.1803398874989, 4;                 !- X,Y,Z Vertex 4 {m}

OS:Surface,
  {b9bbc1d1-6db1-46f2-bddf-eaa5f76e69e4}, !- Handle
  Surface 4,                              !- Name
  Wall,                                   !- Surface Type
  ,                                       !- Construction Name
  {390da32a-19c5-4496-92e6-30d01d960fe0}, !- Space Name
  Surface,                                !- Outside Boundary Condition
  {925c457e-e968-4003-bb35-58511787771d}, !- Outside Boundary Condition Object
  NoSun,                                  !- Sun Exposure
  NoWind,                                 !- Wind Exposure
  ,                                       !- View Factor to Ground
  ,                                       !- Number of Vertices
  3, 3, 4,                                !- X,Y,Z Vertex 1 {m}
  3, 3, 0,                                !- X,Y,Z Vertex 2 {m}
  3, 8.18033988749895, 0,                 !- X,Y,Z Vertex 3 {m}
  3, 8.18033988749895, 4;                 !- X,Y,Z Vertex 4 {m}

OS:Surface,
  {de036031-ef20-4e6b-a27c-8b639a4ab8d0}, !- Handle
  Surface 5,                              !- Name
  Wall,                                   !- Surface Type
  ,                                       !- Construction Name
  {390da32a-19c5-4496-92e6-30d01d960fe0}, !- Space Name
  Surface,                                !- Outside Boundary Condition
  {1c8f86ce-86fd-426c-a2cf-532d3971af55}, !- Outside Boundary Condition Object
  NoSun,                                  !- Sun Exposure
  NoWind,                                 !- Wind Exposure
  ,                                       !- View Factor to Ground
  ,                                       !- Number of Vertices
  0, 0, 4,                                !- X,Y,Z Vertex 1 {m}
  0, 0, 0,                                !- X,Y,Z Vertex 2 {m}
  3, 3, 0,                                !- X,Y,Z Vertex 3 {m}
  3, 3, 4;                                !- X,Y,Z Vertex 4 {m}

OS:Surface,
  {d917f2f3-4b44-460f-9240-dfd0bd4432fd}, !- Handle
  Surface 6,                              !- Name
  RoofCeiling,                            !- Surface Type
  ,                                       !- Construction Name
  {390da32a-19c5-4496-92e6-30d01d960fe0}, !- Space Name
  Surface,                                !- Outside Boundary Condition
  {8b85d9b8-f6af-4d97-9394-2f71357f7759}, !- Outside Boundary Condition Object
  NoSun,                                  !- Sun Exposure
  NoWind,                                 !- Wind Exposure
  ,                                       !- View Factor to Ground
  ,                                       !- Number of Vertices
  3, 3, 4,                                !- X,Y,Z Vertex 1 {m}
  3, 8.18033988749895, 4,                 !- X,Y,Z Vertex 2 {m}
  0, 11.1803398874989, 4,                 !- X,Y,Z Vertex 3 {m}
  0, 0, 4;                                !- X,Y,Z Vertex 4 {m}

OS:Space,
  {faffd6f4-16fe-4541-bcf8-0d4dfc20ff4b}, !- Handle
  Story 1 North Perimeter Space,          !- Name
  ,                                       !- Space Type Name
  ,                                       !- Default Construction Set Name
  ,                                       !- Default Schedule Set Name
  -0,                                     !- Direction of Relative North {deg}
  3,                                      !- X Origin {m}
  8.18033988749895,                       !- Y Origin {m}
  0,                                      !- Z Origin {m}
  {8f643ae4-547b-4b4c-a512-e1fd81683320}, !- Building Story Name
  {4ea0445d-b920-4f3a-89a5-db2c95253c72}; !- Thermal Zone Name

OS:Surface,
  {f89bada8-2cf7-4dfd-848d-0811310e1c0f}, !- Handle
  Surface 7,                              !- Name
  Floor,                                  !- Surface Type
  ,                                       !- Construction Name
  {faffd6f4-16fe-4541-bcf8-0d4dfc20ff4b}, !- Space Name
  Ground,                                 !- Outside Boundary Condition
  ,                                       !- Outside Boundary Condition Object
  NoSun,                                  !- Sun Exposure
  NoWind,                                 !- Wind Exposure
  ,                                       !- View Factor to Ground
  ,                                       !- Number of Vertices
  -3, 2.99999999999995, 0,                !- X,Y,Z Vertex 1 {m}
  8.1803398874989, 2.99999999999995, 0,   !- X,Y,Z Vertex 2 {m}
  5.18033988749895, 1.77635683940025e-15, 0, !- X,Y,Z Vertex 3 {m}
  0, 1.77635683940025e-15, 0;             !- X,Y,Z Vertex 4 {m}

OS:Surface,
  {4a8746ce-dbb7-49ad-93e7-55b8a3ab909d}, !- Handle
  Surface 8,                              !- Name
  Wall,                                   !- Surface Type
  ,                                       !- Construction Name
  {faffd6f4-16fe-4541-bcf8-0d4dfc20ff4b}, !- Space Name
  Outdoors,                               !- Outside Boundary Condition
  ,                                       !- Outside Boundary Condition Object
  SunExposed,                             !- Sun Exposure
  WindExposed,                            !- Wind Exposure
  ,                                       !- View Factor to Ground
  ,                                       !- Number of Vertices
  8.1803398874989, 2.99999999999995, 4,   !- X,Y,Z Vertex 1 {m}
  8.1803398874989, 2.99999999999995, 0,   !- X,Y,Z Vertex 2 {m}
  -3, 2.99999999999995, 0,                !- X,Y,Z Vertex 3 {m}
  -3, 2.99999999999995, 4;                !- X,Y,Z Vertex 4 {m}

OS:Surface,
  {91d19f95-a053-4521-acc3-8119d26af128}, !- Handle
  Surface 9,                              !- Name
  Wall,                                   !- Surface Type
  ,                                       !- Construction Name
  {faffd6f4-16fe-4541-bcf8-0d4dfc20ff4b}, !- Space Name
  Surface,                                !- Outside Boundary Condition
  {c96a54ae-bf12-4514-8123-8acc7ca99d3a}, !- Outside Boundary Condition Object
  NoSun,                                  !- Sun Exposure
  NoWind,                                 !- Wind Exposure
  ,                                       !- View Factor to Ground
  ,                                       !- Number of Vertices
  5.18033988749895, 1.77635683940025e-15, 4, !- X,Y,Z Vertex 1 {m}
  5.18033988749895, 1.77635683940025e-15, 0, !- X,Y,Z Vertex 2 {m}
  8.1803398874989, 2.99999999999995, 0,   !- X,Y,Z Vertex 3 {m}
  8.1803398874989, 2.99999999999995, 4;   !- X,Y,Z Vertex 4 {m}

OS:Surface,
  {93b88092-d4d4-421a-a080-74cdb06be624}, !- Handle
  Surface 10,                             !- Name
  Wall,                                   !- Surface Type
  ,                                       !- Construction Name
  {faffd6f4-16fe-4541-bcf8-0d4dfc20ff4b}, !- Space Name
  Surface,                                !- Outside Boundary Condition
  {e8ee1aeb-3473-40a7-8596-130bb57793df}, !- Outside Boundary Condition Object
  NoSun,                                  !- Sun Exposure
  NoWind,                                 !- Wind Exposure
  ,                                       !- View Factor to Ground
  ,                                       !- Number of Vertices
  0, 1.77635683940025e-15, 4,             !- X,Y,Z Vertex 1 {m}
  0, 1.77635683940025e-15, 0,             !- X,Y,Z Vertex 2 {m}
  5.18033988749895, 1.77635683940025e-15, 0, !- X,Y,Z Vertex 3 {m}
  5.18033988749895, 1.77635683940025e-15, 4; !- X,Y,Z Vertex 4 {m}

OS:Surface,
  {b766f9ae-6dcb-4f15-aca2-89b6974092ef}, !- Handle
  Surface 11,                             !- Name
  Wall,                                   !- Surface Type
  ,                                       !- Construction Name
  {faffd6f4-16fe-4541-bcf8-0d4dfc20ff4b}, !- Space Name
  Surface,                                !- Outside Boundary Condition
  {8edb77e3-22da-41d6-973e-c6ba9c10f6c1}, !- Outside Boundary Condition Object
  NoSun,                                  !- Sun Exposure
  NoWind,                                 !- Wind Exposure
  ,                                       !- View Factor to Ground
  ,                                       !- Number of Vertices
  -3, 2.99999999999995, 4,                !- X,Y,Z Vertex 1 {m}
  -3, 2.99999999999995, 0,                !- X,Y,Z Vertex 2 {m}
  0, 1.77635683940025e-15, 0,             !- X,Y,Z Vertex 3 {m}
  0, 1.77635683940025e-15, 4;             !- X,Y,Z Vertex 4 {m}

OS:Surface,
  {086c7ed5-4455-49c9-b501-2be80a8bb0dd}, !- Handle
  Surface 12,                             !- Name
  RoofCeiling,                            !- Surface Type
  ,                                       !- Construction Name
  {faffd6f4-16fe-4541-bcf8-0d4dfc20ff4b}, !- Space Name
  Surface,                                !- Outside Boundary Condition
  {404061f7-1544-4c26-bcbc-f0ef71022866}, !- Outside Boundary Condition Object
  NoSun,                                  !- Sun Exposure
  NoWind,                                 !- Wind Exposure
  ,                                       !- View Factor to Ground
  ,                                       !- Number of Vertices
  0, 1.77635683940025e-15, 4,             !- X,Y,Z Vertex 1 {m}
  5.18033988749895, 1.77635683940025e-15, 4, !- X,Y,Z Vertex 2 {m}
  8.1803398874989, 2.99999999999995, 4,   !- X,Y,Z Vertex 3 {m}
  -3, 2.99999999999995, 4;                !- X,Y,Z Vertex 4 {m}

OS:Space,
  {2b2ec6e0-d49f-459c-bd8a-c9a432a64652}, !- Handle
  Story 1 East Perimeter Space,           !- Name
  ,                                       !- Space Type Name
  ,                                       !- Default Construction Set Name
  ,                                       !- Default Schedule Set Name
  -0,                                     !- Direction of Relative North {deg}
  8.18033988749895,                       !- X Origin {m}
  3,                                      !- Y Origin {m}
  0,                                      !- Z Origin {m}
  {8f643ae4-547b-4b4c-a512-e1fd81683320}, !- Building Story Name
  {a6cedadf-7729-47c7-a0cb-b7af3015274c}; !- Thermal Zone Name

OS:Surface,
  {6ff364c5-961f-4cf2-9861-761c33a794cb}, !- Handle
  Surface 13,                             !- Name
  Floor,                                  !- Surface Type
  ,                                       !- Construction Name
  {2b2ec6e0-d49f-459c-bd8a-c9a432a64652}, !- Space Name
  Ground,                                 !- Outside Boundary Condition
  ,                                       !- Outside Boundary Condition Object
  NoSun,                                  !- Sun Exposure
  NoWind,                                 !- Wind Exposure
  ,                                       !- View Factor to Ground
  ,                                       !- Number of Vertices
  2.99999999999995, 8.1803398874989, 0,   !- X,Y,Z Vertex 1 {m}
  2.99999999999995, -3, 0,                !- X,Y,Z Vertex 2 {m}
  1.77635683940025e-15, 0, 0,             !- X,Y,Z Vertex 3 {m}
  1.77635683940025e-15, 5.18033988749895, 0; !- X,Y,Z Vertex 4 {m}

OS:Surface,
  {8efefbb3-a450-4dfc-ba92-667420713a91}, !- Handle
  Surface 14,                             !- Name
  Wall,                                   !- Surface Type
  ,                                       !- Construction Name
  {2b2ec6e0-d49f-459c-bd8a-c9a432a64652}, !- Space Name
  Outdoors,                               !- Outside Boundary Condition
  ,                                       !- Outside Boundary Condition Object
  SunExposed,                             !- Sun Exposure
  WindExposed,                            !- Wind Exposure
  ,                                       !- View Factor to Ground
  ,                                       !- Number of Vertices
  2.99999999999995, -3, 4,                !- X,Y,Z Vertex 1 {m}
  2.99999999999995, -3, 0,                !- X,Y,Z Vertex 2 {m}
  2.99999999999995, 8.1803398874989, 0,   !- X,Y,Z Vertex 3 {m}
  2.99999999999995, 8.1803398874989, 4;   !- X,Y,Z Vertex 4 {m}

OS:Surface,
  {70de80b3-367c-4ba5-b1a7-261918f57645}, !- Handle
  Surface 15,                             !- Name
  Wall,                                   !- Surface Type
  ,                                       !- Construction Name
  {2b2ec6e0-d49f-459c-bd8a-c9a432a64652}, !- Space Name
  Surface,                                !- Outside Boundary Condition
  {46106716-3135-465b-92ab-60b5638bcc49}, !- Outside Boundary Condition Object
  NoSun,                                  !- Sun Exposure
  NoWind,                                 !- Wind Exposure
  ,                                       !- View Factor to Ground
  ,                                       !- Number of Vertices
  1.77635683940025e-15, 0, 4,             !- X,Y,Z Vertex 1 {m}
  1.77635683940025e-15, 0, 0,             !- X,Y,Z Vertex 2 {m}
  2.99999999999995, -3, 0,                !- X,Y,Z Vertex 3 {m}
  2.99999999999995, -3, 4;                !- X,Y,Z Vertex 4 {m}

OS:Surface,
  {603c629a-6614-4cff-a63a-c778631d9d1f}, !- Handle
  Surface 16,                             !- Name
  Wall,                                   !- Surface Type
  ,                                       !- Construction Name
  {2b2ec6e0-d49f-459c-bd8a-c9a432a64652}, !- Space Name
  Surface,                                !- Outside Boundary Condition
  {6a52fd6e-e885-4662-913f-e2f2bc932351}, !- Outside Boundary Condition Object
  NoSun,                                  !- Sun Exposure
  NoWind,                                 !- Wind Exposure
  ,                                       !- View Factor to Ground
  ,                                       !- Number of Vertices
  1.77635683940025e-15, 5.18033988749895, 4, !- X,Y,Z Vertex 1 {m}
  1.77635683940025e-15, 5.18033988749895, 0, !- X,Y,Z Vertex 2 {m}
  1.77635683940025e-15, 0, 0,             !- X,Y,Z Vertex 3 {m}
  1.77635683940025e-15, 0, 4;             !- X,Y,Z Vertex 4 {m}

OS:Surface,
  {c96a54ae-bf12-4514-8123-8acc7ca99d3a}, !- Handle
  Surface 17,                             !- Name
  Wall,                                   !- Surface Type
  ,                                       !- Construction Name
  {2b2ec6e0-d49f-459c-bd8a-c9a432a64652}, !- Space Name
  Surface,                                !- Outside Boundary Condition
  {91d19f95-a053-4521-acc3-8119d26af128}, !- Outside Boundary Condition Object
  NoSun,                                  !- Sun Exposure
  NoWind,                                 !- Wind Exposure
  ,                                       !- View Factor to Ground
  ,                                       !- Number of Vertices
  2.99999999999995, 8.1803398874989, 4,   !- X,Y,Z Vertex 1 {m}
  2.99999999999995, 8.1803398874989, 0,   !- X,Y,Z Vertex 2 {m}
  1.77635683940025e-15, 5.18033988749895, 0, !- X,Y,Z Vertex 3 {m}
  1.77635683940025e-15, 5.18033988749895, 4; !- X,Y,Z Vertex 4 {m}

OS:Surface,
  {f0308174-2294-4819-aa21-09ea25d08b36}, !- Handle
  Surface 18,                             !- Name
  RoofCeiling,                            !- Surface Type
  ,                                       !- Construction Name
  {2b2ec6e0-d49f-459c-bd8a-c9a432a64652}, !- Space Name
  Surface,                                !- Outside Boundary Condition
  {fb53e449-e632-4055-b2d3-e85eacad60e0}, !- Outside Boundary Condition Object
  NoSun,                                  !- Sun Exposure
  NoWind,                                 !- Wind Exposure
  ,                                       !- View Factor to Ground
  ,                                       !- Number of Vertices
  1.77635683940025e-15, 5.18033988749895, 4, !- X,Y,Z Vertex 1 {m}
  1.77635683940025e-15, 0, 4,             !- X,Y,Z Vertex 2 {m}
  2.99999999999995, -3, 4,                !- X,Y,Z Vertex 3 {m}
  2.99999999999995, 8.1803398874989, 4;   !- X,Y,Z Vertex 4 {m}

OS:Space,
  {9635f47b-2306-478a-b48a-e0ed6f5629bf}, !- Handle
  Story 1 South Perimeter Space,          !- Name
  ,                                       !- Space Type Name
  ,                                       !- Default Construction Set Name
  ,                                       !- Default Schedule Set Name
  -0,                                     !- Direction of Relative North {deg}
  0,                                      !- X Origin {m}
  0,                                      !- Y Origin {m}
  0,                                      !- Z Origin {m}
  {8f643ae4-547b-4b4c-a512-e1fd81683320}, !- Building Story Name
  {27061f34-4e1a-466e-a373-c1c4057cdbe3}; !- Thermal Zone Name

OS:Surface,
  {38b1dccf-cc8d-49c4-8385-c9cc7eebb05b}, !- Handle
  Surface 19,                             !- Name
  Floor,                                  !- Surface Type
  ,                                       !- Construction Name
  {9635f47b-2306-478a-b48a-e0ed6f5629bf}, !- Space Name
  Ground,                                 !- Outside Boundary Condition
  ,                                       !- Outside Boundary Condition Object
  NoSun,                                  !- Sun Exposure
  NoWind,                                 !- Wind Exposure
  ,                                       !- View Factor to Ground
  ,                                       !- Number of Vertices
  11.1803398874989, 0, 0,                 !- X,Y,Z Vertex 1 {m}
  0, 0, 0,                                !- X,Y,Z Vertex 2 {m}
  3, 3, 0,                                !- X,Y,Z Vertex 3 {m}
  8.18033988749895, 3, 0;                 !- X,Y,Z Vertex 4 {m}

OS:Surface,
  {0ac71c4a-b294-4a96-8326-9781de95b608}, !- Handle
  Surface 20,                             !- Name
  Wall,                                   !- Surface Type
  ,                                       !- Construction Name
  {9635f47b-2306-478a-b48a-e0ed6f5629bf}, !- Space Name
  Outdoors,                               !- Outside Boundary Condition
  ,                                       !- Outside Boundary Condition Object
  SunExposed,                             !- Sun Exposure
  WindExposed,                            !- Wind Exposure
  ,                                       !- View Factor to Ground
  ,                                       !- Number of Vertices
  0, 0, 4,                                !- X,Y,Z Vertex 1 {m}
  0, 0, 0,                                !- X,Y,Z Vertex 2 {m}
  11.1803398874989, 0, 0,                 !- X,Y,Z Vertex 3 {m}
  11.1803398874989, 0, 4;                 !- X,Y,Z Vertex 4 {m}

OS:Surface,
  {1c8f86ce-86fd-426c-a2cf-532d3971af55}, !- Handle
  Surface 21,                             !- Name
  Wall,                                   !- Surface Type
  ,                                       !- Construction Name
  {9635f47b-2306-478a-b48a-e0ed6f5629bf}, !- Space Name
  Surface,                                !- Outside Boundary Condition
  {de036031-ef20-4e6b-a27c-8b639a4ab8d0}, !- Outside Boundary Condition Object
  NoSun,                                  !- Sun Exposure
  NoWind,                                 !- Wind Exposure
  ,                                       !- View Factor to Ground
  ,                                       !- Number of Vertices
  3, 3, 4,                                !- X,Y,Z Vertex 1 {m}
  3, 3, 0,                                !- X,Y,Z Vertex 2 {m}
  0, 0, 0,                                !- X,Y,Z Vertex 3 {m}
  0, 0, 4;                                !- X,Y,Z Vertex 4 {m}

OS:Surface,
  {83868354-9cca-4f29-84b2-b6f90f3cc87a}, !- Handle
  Surface 22,                             !- Name
  Wall,                                   !- Surface Type
  ,                                       !- Construction Name
  {9635f47b-2306-478a-b48a-e0ed6f5629bf}, !- Space Name
  Surface,                                !- Outside Boundary Condition
  {b419d330-5577-4c30-92e5-c52c5c4d86ee}, !- Outside Boundary Condition Object
  NoSun,                                  !- Sun Exposure
  NoWind,                                 !- Wind Exposure
  ,                                       !- View Factor to Ground
  ,                                       !- Number of Vertices
  8.18033988749895, 3, 4,                 !- X,Y,Z Vertex 1 {m}
  8.18033988749895, 3, 0,                 !- X,Y,Z Vertex 2 {m}
  3, 3, 0,                                !- X,Y,Z Vertex 3 {m}
  3, 3, 4;                                !- X,Y,Z Vertex 4 {m}

OS:Surface,
  {46106716-3135-465b-92ab-60b5638bcc49}, !- Handle
  Surface 23,                             !- Name
  Wall,                                   !- Surface Type
  ,                                       !- Construction Name
  {9635f47b-2306-478a-b48a-e0ed6f5629bf}, !- Space Name
  Surface,                                !- Outside Boundary Condition
  {70de80b3-367c-4ba5-b1a7-261918f57645}, !- Outside Boundary Condition Object
  NoSun,                                  !- Sun Exposure
  NoWind,                                 !- Wind Exposure
  ,                                       !- View Factor to Ground
  ,                                       !- Number of Vertices
  11.1803398874989, 0, 4,                 !- X,Y,Z Vertex 1 {m}
  11.1803398874989, 0, 0,                 !- X,Y,Z Vertex 2 {m}
  8.18033988749895, 3, 0,                 !- X,Y,Z Vertex 3 {m}
  8.18033988749895, 3, 4;                 !- X,Y,Z Vertex 4 {m}

OS:Surface,
  {5c15fb82-aac4-479d-bf66-dac24da88fd5}, !- Handle
  Surface 24,                             !- Name
  RoofCeiling,                            !- Surface Type
  ,                                       !- Construction Name
  {9635f47b-2306-478a-b48a-e0ed6f5629bf}, !- Space Name
  Surface,                                !- Outside Boundary Condition
  {0941ea00-eba7-45ad-b51c-0fc6f501e8f1}, !- Outside Boundary Condition Object
  NoSun,                                  !- Sun Exposure
  NoWind,                                 !- Wind Exposure
  ,                                       !- View Factor to Ground
  ,                                       !- Number of Vertices
  8.18033988749895, 3, 4,                 !- X,Y,Z Vertex 1 {m}
  3, 3, 4,                                !- X,Y,Z Vertex 2 {m}
  0, 0, 4,                                !- X,Y,Z Vertex 3 {m}
  11.1803398874989, 0, 4;                 !- X,Y,Z Vertex 4 {m}

OS:Space,
  {9aef6928-04d1-4f33-8cb8-238713bf2ca5}, !- Handle
  Story 1 Core Space,                     !- Name
  ,                                       !- Space Type Name
  ,                                       !- Default Construction Set Name
  ,                                       !- Default Schedule Set Name
  -0,                                     !- Direction of Relative North {deg}
  3,                                      !- X Origin {m}
  3,                                      !- Y Origin {m}
  0,                                      !- Z Origin {m}
  {8f643ae4-547b-4b4c-a512-e1fd81683320}, !- Building Story Name
  {751ea84f-b1b3-4223-a89c-bb95e5f61c0e}; !- Thermal Zone Name

OS:Surface,
  {a06cff34-a6f9-4f93-8a71-77af0cfd3d1f}, !- Handle
  Surface 25,                             !- Name
  Floor,                                  !- Surface Type
  ,                                       !- Construction Name
  {9aef6928-04d1-4f33-8cb8-238713bf2ca5}, !- Space Name
  Ground,                                 !- Outside Boundary Condition
  ,                                       !- Outside Boundary Condition Object
  NoSun,                                  !- Sun Exposure
  NoWind,                                 !- Wind Exposure
  ,                                       !- View Factor to Ground
  ,                                       !- Number of Vertices
  0, 0, 0,                                !- X,Y,Z Vertex 1 {m}
  0, 5.18033988749895, 0,                 !- X,Y,Z Vertex 2 {m}
  5.18033988749895, 5.18033988749895, 0,  !- X,Y,Z Vertex 3 {m}
  5.18033988749895, 0, 0;                 !- X,Y,Z Vertex 4 {m}

OS:Surface,
  {925c457e-e968-4003-bb35-58511787771d}, !- Handle
  Surface 26,                             !- Name
  Wall,                                   !- Surface Type
  ,                                       !- Construction Name
  {9aef6928-04d1-4f33-8cb8-238713bf2ca5}, !- Space Name
  Surface,                                !- Outside Boundary Condition
  {b9bbc1d1-6db1-46f2-bddf-eaa5f76e69e4}, !- Outside Boundary Condition Object
  NoSun,                                  !- Sun Exposure
  NoWind,                                 !- Wind Exposure
  ,                                       !- View Factor to Ground
  ,                                       !- Number of Vertices
  0, 5.18033988749895, 4,                 !- X,Y,Z Vertex 1 {m}
  0, 5.18033988749895, 0,                 !- X,Y,Z Vertex 2 {m}
  0, 0, 0,                                !- X,Y,Z Vertex 3 {m}
  0, 0, 4;                                !- X,Y,Z Vertex 4 {m}

OS:Surface,
  {e8ee1aeb-3473-40a7-8596-130bb57793df}, !- Handle
  Surface 27,                             !- Name
  Wall,                                   !- Surface Type
  ,                                       !- Construction Name
  {9aef6928-04d1-4f33-8cb8-238713bf2ca5}, !- Space Name
  Surface,                                !- Outside Boundary Condition
  {93b88092-d4d4-421a-a080-74cdb06be624}, !- Outside Boundary Condition Object
  NoSun,                                  !- Sun Exposure
  NoWind,                                 !- Wind Exposure
  ,                                       !- View Factor to Ground
  ,                                       !- Number of Vertices
  5.18033988749895, 5.18033988749895, 4,  !- X,Y,Z Vertex 1 {m}
  5.18033988749895, 5.18033988749895, 0,  !- X,Y,Z Vertex 2 {m}
  0, 5.18033988749895, 0,                 !- X,Y,Z Vertex 3 {m}
  0, 5.18033988749895, 4;                 !- X,Y,Z Vertex 4 {m}

OS:Surface,
  {6a52fd6e-e885-4662-913f-e2f2bc932351}, !- Handle
  Surface 28,                             !- Name
  Wall,                                   !- Surface Type
  ,                                       !- Construction Name