
OS:Version,
  {bf97ddaf-0eb1-4962-9a20-6d60fd5bd8ae}, !- Handle
  0.10.0;                                 !- Version Identifier

OS:BuildingStory,
  {60027814-9cf2-4f19-984c-84aceff397ba}, !- Handle
  Story 1,                                !- Name
  0,                                      !- Nominal Z Coordinate {m}
  4,                                      !- Nominal Floor to Floor Height {m}
  ,                                       !- Default Construction Set Name
  ,                                       !- Default Schedule Set Name
  ;                                       !- Group Rendering Name

OS:Space,
  {beb3b3c5-ca20-485d-a1ff-c850dec4aaf1}, !- Handle
  Story 1 West Perimeter Space,           !- Name
  ,                                       !- Space Type Name
  ,                                       !- Default Construction Set Name
  ,                                       !- Default Schedule Set Name
  -0,                                     !- Direction of Relative North {deg}
  0,                                      !- X Origin {m}
  0,                                      !- Y Origin {m}
  0,                                      !- Z Origin {m}
  {60027814-9cf2-4f19-984c-84aceff397ba}, !- Building Story Name
  {7ae0cb0b-158c-443b-8dd8-cca8ce1606b0}; !- Thermal Zone Name

OS:Surface,
  {4548b5f9-784d-4c8c-80f1-d704d8861bf0}, !- Handle
  Surface 1,                              !- Name
  Floor,                                  !- Surface Type
  ,                                       !- Construction Name
  {beb3b3c5-ca20-485d-a1ff-c850dec4aaf1}, !- Space Name
  Ground,                                 !- Outside Boundary Condition
  ,                                       !- Outside Boundary Condition Object
  NoSun,                                  !- Sun Exposure
  NoWind,                                 !- Wind Exposure
  ,                                       !- View Factor to Ground
  ,                                       !- Number of Vertices
  0, 0, 0,                                !- X,Y,Z Vertex 1 {m}
  0, 28.2807354925575, 0,                 !- X,Y,Z Vertex 2 {m}
  3, 25.2807354925575, 0,                 !- X,Y,Z Vertex 3 {m}
  3, 3, 0;                                !- X,Y,Z Vertex 4 {m}

OS:Surface,
  {99453700-58cb-4a35-9e90-96d8d2a97ae5}, !- Handle
  Surface 2,                              !- Name
  Wall,                                   !- Surface Type
  ,                                       !- Construction Name
  {beb3b3c5-ca20-485d-a1ff-c850dec4aaf1}, !- Space Name
  Outdoors,                               !- Outside Boundary Condition
  ,                                       !- Outside Boundary Condition Object
  SunExposed,                             !- Sun Exposure
  WindExposed,                            !- Wind Exposure
  ,                                       !- View Factor to Ground
  ,                                       !- Number of Vertices
  0, 28.2807354925575, 4,                 !- X,Y,Z Vertex 1 {m}
  0, 28.2807354925575, 0,                 !- X,Y,Z Vertex 2 {m}
  0, 0, 0,                                !- X,Y,Z Vertex 3 {m}
  0, 0, 4;                                !- X,Y,Z Vertex 4 {m}

OS:Surface,
  {f57d0221-0937-446e-a81c-34fd5b699af1}, !- Handle
  Surface 3,                              !- Name
  Wall,                                   !- Surface Type
  ,                                       !- Construction Name
  {beb3b3c5-ca20-485d-a1ff-c850dec4aaf1}, !- Space Name
  Surface,                                !- Outside Boundary Condition
  {013ca628-0ea0-4478-9653-30ad1b72e6a7}, !- Outside Boundary Condition Object
  NoSun,                                  !- Sun Exposure
  NoWind,                                 !- Wind Exposure
  ,                                       !- View Factor to Ground
  ,                                       !- Number of Vertices
  3, 25.2807354925575, 4,                 !- X,Y,Z Vertex 1 {m}
  3, 25.2807354925575, 0,                 !- X,Y,Z Vertex 2 {m}
  0, 28.2807354925575, 0,                 !- X,Y,Z Vertex 3 {m}
  0, 28.2807354925575, 4;                 !- X,Y,Z Vertex 4 {m}

OS:Surface,
  {1b9a01aa-7108-48b6-b9fa-c0d986c5cf8d}, !- Handle
  Surface 4,                              !- Name
  Wall,                                   !- Surface Type
  ,                                       !- Construction Name
  {beb3b3c5-ca20-485d-a1ff-c850dec4aaf1}, !- Space Name
  Surface,                                !- Outside Boundary Condition
  {e91403b6-56d3-450a-8de9-acec4f4bf76b}, !- Outside Boundary Condition Object
  NoSun,                                  !- Sun Exposure
  NoWind,                                 !- Wind Exposure
  ,                                       !- View Factor to Ground
  ,                                       !- Number of Vertices
  3, 3, 4,                                !- X,Y,Z Vertex 1 {m}
  3, 3, 0,                                !- X,Y,Z Vertex 2 {m}
  3, 25.2807354925575, 0,                 !- X,Y,Z Vertex 3 {m}
  3, 25.2807354925575, 4;                 !- X,Y,Z Vertex 4 {m}

OS:Surface,
  {f3f1c5bd-6b3e-453a-a890-d6ea6df1f411}, !- Handle
  Surface 5,                              !- Name
  Wall,                                   !- Surface Type
  ,                                       !- Construction Name
  {beb3b3c5-ca20-485d-a1ff-c850dec4aaf1}, !- Space Name
  Surface,                                !- Outside Boundary Condition
  {b798ec6b-9d6a-4bb9-99a8-a63fa58d8aa6}, !- Outside Boundary Condition Object
  NoSun,                                  !- Sun Exposure
  NoWind,                                 !- Wind Exposure
  ,                                       !- View Factor to Ground
  ,                                       !- Number of Vertices
  0, 0, 4,                                !- X,Y,Z Vertex 1 {m}
  0, 0, 0,                                !- X,Y,Z Vertex 2 {m}
  3, 3, 0,                                !- X,Y,Z Vertex 3 {m}
  3, 3, 4;                                !- X,Y,Z Vertex 4 {m}

OS:Surface,
  {90e4cbcd-c96a-4ab3-8da7-f5f30bf16f76}, !- Handle
  Surface 6,                              !- Name
  RoofCeiling,                            !- Surface Type
  ,                                       !- Construction Name
  {beb3b3c5-ca20-485d-a1ff-c850dec4aaf1}, !- Space Name
  Surface,                                !- Outside Boundary Condition
  {f92b8e8d-6d26-4d6c-a7c1-32f13d030bdd}, !- Outside Boundary Condition Object
  NoSun,                                  !- Sun Exposure
  NoWind,                                 !- Wind Exposure
  ,                                       !- View Factor to Ground
  ,                                       !- Number of Vertices
  3, 3, 4,                                !- X,Y,Z Vertex 1 {m}
  3, 25.2807354925575, 4,                 !- X,Y,Z Vertex 2 {m}
  0, 28.2807354925575, 4,                 !- X,Y,Z Vertex 3 {m}
  0, 0, 4;                                !- X,Y,Z Vertex 4 {m}

OS:Space,
  {100018d7-ea62-452b-b575-b478abb3646a}, !- Handle
  Story 1 North Perimeter Space,          !- Name
  ,                                       !- Space Type Name
  ,                                       !- Default Construction Set Name
  ,                                       !- Default Schedule Set Name
  -0,                                     !- Direction of Relative North {deg}
  3,                                      !- X Origin {m}
  25.2807354925575,                       !- Y Origin {m}
  0,                                      !- Z Origin {m}
  {60027814-9cf2-4f19-984c-84aceff397ba}, !- Building Story Name
  {eab31bb8-1ce9-4c1f-9de7-44bc4d32e882}; !- Thermal Zone Name

OS:Surface,
  {f645efc0-538c-41e2-9345-97d739ee7bd1}, !- Handle
  Surface 7,                              !- Name
  Floor,                                  !- Surface Type
  ,                                       !- Construction Name
  {100018d7-ea62-452b-b575-b478abb3646a}, !- Space Name
  Ground,                                 !- Outside Boundary Condition
  ,                                       !- Outside Boundary Condition Object
  NoSun,                                  !- Sun Exposure
  NoWind,                                 !- Wind Exposure
  ,                                       !- View Factor to Ground
  ,                                       !- Number of Vertices
  -3, 3.00000000000003, 0,                !- X,Y,Z Vertex 1 {m}
  25.2807354925575, 3.00000000000003, 0,  !- X,Y,Z Vertex 2 {m}
  22.2807354925575, 2.8421709430404e-14, 0, !- X,Y,Z Vertex 3 {m}
  0, 2.8421709430404e-14, 0;              !- X,Y,Z Vertex 4 {m}

OS:Surface,
  {43e1e632-53c2-41d7-a63a-4e3094e3ba41}, !- Handle
  Surface 8,                              !- Name
  Wall,                                   !- Surface Type
  ,                                       !- Construction Name
  {100018d7-ea62-452b-b575-b478abb3646a}, !- Space Name
  Outdoors,                               !- Outside Boundary Condition
  ,                                       !- Outside Boundary Condition Object
  SunExposed,                             !- Sun Exposure
  WindExposed,                            !- Wind Exposure
  ,                                       !- View Factor to Ground
  ,                                       !- Number of Vertices
  25.2807354925575, 3.00000000000003, 4,  !- X,Y,Z Vertex 1 {m}
  25.2807354925575, 3.00000000000003, 0,  !- X,Y,Z Vertex 2 {m}
  -3, 3.00000000000003, 0,                !- X,Y,Z Vertex 3 {m}
  -3, 3.00000000000003, 4;                !- X,Y,Z Vertex 4 {m}

OS:Surface,
  {e96d2bef-ec98-48d6-807b-63b8ad5b1298}, !- Handle
  Surface 9,                              !- Name
  Wall,                                   !- Surface Type
  ,                                       !- Construction Name
  {100018d7-ea62-452b-b575-b478abb3646a}, !- Space Name
  Surface,                                !- Outside Boundary Condition
  {49039086-43c6-42f9-819a-3c4261b5990b}, !- Outside Boundary Condition Object
  NoSun,                                  !- Sun Exposure
  NoWind,                                 !- Wind Exposure
  ,                                       !- View Factor to Ground
  ,                                       !- Number of Vertices
  22.2807354925575, 2.8421709430404e-14, 4, !- X,Y,Z Vertex 1 {m}
  22.2807354925575, 2.8421709430404e-14, 0, !- X,Y,Z Vertex 2 {m}
  25.2807354925575, 3.00000000000003, 0,  !- X,Y,Z Vertex 3 {m}
  25.2807354925575, 3.00000000000003, 4;  !- X,Y,Z Vertex 4 {m}

OS:Surface,
  {5e4b8963-7274-495e-862d-592b34d4fd3d}, !- Handle
  Surface 10,                             !- Name
  Wall,                                   !- Surface Type
  ,                                       !- Construction Name
  {100018d7-ea62-452b-b575-b478abb3646a}, !- Space Name
  Surface,                                !- Outside Boundary Condition
  {696c9bba-f567-4ee8-8ed7-0fdf8af9b7bb}, !- Outside Boundary Condition Object
  NoSun,                                  !- Sun Exposure
  NoWind,                                 !- Wind Exposure
  ,                                       !- View Factor to Ground
  ,                                       !- Number of Vertices
  0, 2.8421709430404e-14, 4,              !- X,Y,Z Vertex 1 {m}
  0, 2.8421709430404e-14, 0,              !- X,Y,Z Vertex 2 {m}
  22.2807354925575, 2.8421709430404e-14, 0, !- X,Y,Z Vertex 3 {m}
  22.2807354925575, 2.8421709430404e-14, 4; !- X,Y,Z Vertex 4 {m}

OS:Surface,
  {013ca628-0ea0-4478-9653-30ad1b72e6a7}, !- Handle
  Surface 11,                             !- Name
  Wall,                                   !- Surface Type
  ,                                       !- Construction Name
  {100018d7-ea62-452b-b575-b478abb3646a}, !- Space Name
  Surface,                                !- Outside Boundary Condition
  {f57d0221-0937-446e-a81c-34fd5b699af1}, !- Outside Boundary Condition Object
  NoSun,                                  !- Sun Exposure
  NoWind,                                 !- Wind Exposure
  ,                                       !- View Factor to Ground
  ,                                       !- Number of Vertices
  -3, 3.00000000000003, 4,                !- X,Y,Z Vertex 1 {m}
  -3, 3.00000000000003, 0,                !- X,Y,Z Vertex 2 {m}
  0, 2.8421709430404e-14, 0,              !- X,Y,Z Vertex 3 {m}
  0, 2.8421709430404e-14, 4;              !- X,Y,Z Vertex 4 {m}

OS:Surface,
  {452dba1e-a159-464f-a858-6d0f598f712c}, !- Handle
  Surface 12,                             !- Name
  RoofCeiling,                            !- Surface Type
  ,                                       !- Construction Name
  {100018d7-ea62-452b-b575-b478abb3646a}, !- Space Name
  Surface,                                !- Outside Boundary Condition
  {e10eb795-b5dc-454a-b820-783f098a3ae5}, !- Outside Boundary Condition Object
  NoSun,                                  !- Sun Exposure
  NoWind,                                 !- Wind Exposure
  ,                                       !- View Factor to Ground
  ,                                       !- Number of Vertices
  0, 2.8421709430404e-14, 4,              !- X,Y,Z Vertex 1 {m}
  22.2807354925575, 2.8421709430404e-14, 4, !- X,Y,Z Vertex 2 {m}
  25.2807354925575, 3.00000000000003, 4,  !- X,Y,Z Vertex 3 {m}
  -3, 3.00000000000003, 4;                !- X,Y,Z Vertex 4 {m}

OS:Space,
  {0738aaae-22a6-486c-9fe9-825c71d888d6}, !- Handle
  Story 1 East Perimeter Space,           !- Name
  ,                                       !- Space Type Name
  ,                                       !- Default Construction Set Name
  ,                                       !- Default Schedule Set Name
  -0,                                     !- Direction of Relative North {deg}
  25.2807354925575,                       !- X Origin {m}
  3,                                      !- Y Origin {m}
  0,                                      !- Z Origin {m}
  {60027814-9cf2-4f19-984c-84aceff397ba}, !- Building Story Name
  {19c82e93-62d6-4d2b-a477-8033917c922e}; !- Thermal Zone Name

OS:Surface,
  {8b45cd59-6941-43e1-9ba9-b8d54de824f8}, !- Handle
  Surface 13,                             !- Name
  Floor,                                  !- Surface Type
  ,                                       !- Construction Name
  {0738aaae-22a6-486c-9fe9-825c71d888d6}, !- Space Name
  Ground,                                 !- Outside Boundary Condition
  ,                                       !- Outside Boundary Condition Object
  NoSun,                                  !- Sun Exposure
  NoWind,                                 !- Wind Exposure
  ,                                       !- View Factor to Ground
  ,                                       !- Number of Vertices
  3.00000000000003, 25.2807354925575, 0,  !- X,Y,Z Vertex 1 {m}
  3.00000000000003, -3, 0,                !- X,Y,Z Vertex 2 {m}
  2.8421709430404e-14, 0, 0,              !- X,Y,Z Vertex 3 {m}
  2.8421709430404e-14, 22.2807354925575, 0; !- X,Y,Z Vertex 4 {m}

OS:Surface,
  {7615d6c9-6121-4809-b211-c5676629c9c4}, !- Handle
  Surface 14,                             !- Name
  Wall,                                   !- Surface Type
  ,                                       !- Construction Name
  {0738aaae-22a6-486c-9fe9-825c71d888d6}, !- Space Name
  Outdoors,                               !- Outside Boundary Condition
  ,                                       !- Outside Boundary Condition Object
  SunExposed,                             !- Sun Exposure
  WindExposed,                            !- Wind Exposure
  ,                                       !- View Factor to Ground
  ,                                       !- Number of Vertices
  3.00000000000003, -3, 4,                !- X,Y,Z Vertex 1 {m}
  3.00000000000003, -3, 0,                !- X,Y,Z Vertex 2 {m}
  3.00000000000003, 25.2807354925575, 0,  !- X,Y,Z Vertex 3 {m}
  3.00000000000003, 25.2807354925575, 4;  !- X,Y,Z Vertex 4 {m}

OS:Surface,
  {14c8af45-c94c-49f7-84b3-4ce11fef7ba9}, !- Handle
  Surface 15,                             !- Name
  Wall,                                   !- Surface Type
  ,                                       !- Construction Name
  {0738aaae-22a6-486c-9fe9-825c71d888d6}, !- Space Name
  Surface,                                !- Outside Boundary Condition
  {04cad5b5-9454-4368-9929-4469881b9e4c}, !- Outside Boundary Condition Object
  NoSun,                                  !- Sun Exposure
  NoWind,                                 !- Wind Exposure
  ,                                       !- View Factor to Ground
  ,                                       !- Number of Vertices
  2.8421709430404e-14, 0, 4,              !- X,Y,Z Vertex 1 {m}
  2.8421709430404e-14, 0, 0,              !- X,Y,Z Vertex 2 {m}
  3.00000000000003, -3, 0,                !- X,Y,Z Vertex 3 {m}
  3.00000000000003, -3, 4;                !- X,Y,Z Vertex 4 {m}

OS:Surface,
  {fd7728f7-18f5-4cdb-ad38-5425bee8dc72}, !- Handle
  Surface 16,                             !- Name
  Wall,                                   !- Surface Type
  ,                                       !- Construction Name
  {0738aaae-22a6-486c-9fe9-825c71d888d6}, !- Space Name
  Surface,                                !- Outside Boundary Condition
  {fcecc7de-e724-4f43-a1f5-1eca0e901120}, !- Outside Boundary Condition Object
  NoSun,                                  !- Sun Exposure
  NoWind,                                 !- Wind Exposure
  ,                                       !- View Factor to Ground
  ,                                       !- Number of Vertices
  2.8421709430404e-14, 22.2807354925575, 4, !- X,Y,Z Vertex 1 {m}
  2.8421709430404e-14, 22.2807354925575, 0, !- X,Y,Z Vertex 2 {m}
  2.8421709430404e-14, 0, 0,              !- X,Y,Z Vertex 3 {m}
  2.8421709430404e-14, 0, 4;              !- X,Y,Z Vertex 4 {m}

OS:Surface,
  {49039086-43c6-42f9-819a-3c4261b5990b}, !- Handle
  Surface 17,                             !- Name
  Wall,                                   !- Surface Type
  ,                                       !- Construction Name
  {0738aaae-22a6-486c-9fe9-825c71d888d6}, !- Space Name
  Surface,                                !- Outside Boundary Condition
  {e96d2bef-ec98-48d6-807b-63b8ad5b1298}, !- Outside Boundary Condition Object
  NoSun,                                  !- Sun Exposure
  NoWind,                                 !- Wind Exposure
  ,                                       !- View Factor to Ground
  ,                                       !- Number of Vertices
  3.00000000000003, 25.2807354925575, 4,  !- X,Y,Z Vertex 1 {m}
  3.00000000000003, 25.2807354925575, 0,  !- X,Y,Z Vertex 2 {m}
  2.8421709430404e-14, 22.2807354925575, 0, !- X,Y,Z Vertex 3 {m}
  2.8421709430404e-14, 22.2807354925575, 4; !- X,Y,Z Vertex 4 {m}

OS:Surface,
  {72415885-eca0-466f-9559-4003621eba7e}, !- Handle
  Surface 18,                             !- Name
  RoofCeiling,                            !- Surface Type
  ,                                       !- Construction Name
  {0738aaae-22a6-486c-9fe9-825c71d888d6}, !- Space Name
  Surface,                                !- Outside Boundary Condition
  {4f37cec8-fa0f-4a80-9d57-3f25829875e5}, !- Outside Boundary Condition Object
  NoSun,                                  !- Sun Exposure
  NoWind,                                 !- Wind Exposure
  ,                                       !- View Factor to Ground
  ,                                       !- Number of Vertices
  2.8421709430404e-14, 22.2807354925575, 4, !- X,Y,Z Vertex 1 {m}
  2.8421709430404e-14, 0, 4,              !- X,Y,Z Vertex 2 {m}
  3.00000000000003, -3, 4,                !- X,Y,Z Vertex 3 {m}
  3.00000000000003, 25.2807354925575, 4;  !- X,Y,Z Vertex 4 {m}

OS:Space,
  {b63c3d41-8dd9-43b2-b173-c1b6457c46b7}, !- Handle
  Story 1 South Perimeter Space,          !- Name
  ,                                       !- Space Type Name
  ,                                       !- Default Construction Set Name
  ,                                       !- Default Schedule Set Name
  -0,                                     !- Direction of Relative North {deg}
  0,                                      !- X Origin {m}
  0,                                      !- Y Origin {m}
  0,                                      !- Z Origin {m}
  {60027814-9cf2-4f19-984c-84aceff397ba}, !- Building Story Name
  {2b2e0f0b-ab00-4aa2-8194-ee7d560a9d3e}; !- Thermal Zone Name

OS:Surface,
  {5b14e14d-a1db-41db-819f-46ffe85daff3}, !- Handle
  Surface 19,                             !- Name
  Floor,                                  !- Surface Type
  ,                                       !- Construction Name
  {b63c3d41-8dd9-43b2-b173-c1b6457c46b7}, !- Space Name
  Ground,                                 !- Outside Boundary Condition
  ,                                       !- Outside Boundary Condition Object
  NoSun,                                  !- Sun Exposure
  NoWind,                                 !- Wind Exposure
  ,                                       !- View Factor to Ground
  ,                                       !- Number of Vertices
  28.2807354925575, 0, 0,                 !- X,Y,Z Vertex 1 {m}
  0, 0, 0,                                !- X,Y,Z Vertex 2 {m}
  3, 3, 0,                                !- X,Y,Z Vertex 3 {m}
  25.2807354925575, 3, 0;                 !- X,Y,Z Vertex 4 {m}

OS:Surface,
  {3ee963c8-b697-4625-8e96-ab01f131834b}, !- Handle
  Surface 20,                             !- Name
  Wall,                                   !- Surface Type
  ,                                       !- Construction Name
  {b63c3d41-8dd9-43b2-b173-c1b6457c46b7}, !- Space Name
  Outdoors,                               !- Outside Boundary Condition
  ,                                       !- Outside Boundary Condition Object
  SunExposed,                             !- Sun Exposure
  WindExposed,                            !- Wind Exposure
  ,                                       !- View Factor to Ground
  ,                                       !- Number of Vertices
  0, 0, 4,                                !- X,Y,Z Vertex 1 {m}
  0, 0, 0,                                !- X,Y,Z Vertex 2 {m}
  28.2807354925575, 0, 0,                 !- X,Y,Z Vertex 3 {m}
  28.2807354925575, 0, 4;                 !- X,Y,Z Vertex 4 {m}

OS:Surface,
  {b798ec6b-9d6a-4bb9-99a8-a63fa58d8aa6}, !- Handle
  Surface 21,                             !- Name
  Wall,                                   !- Surface Type
  ,                                       !- Construction Name
  {b63c3d41-8dd9-43b2-b173-c1b6457c46b7}, !- Space Name
  Surface,                                !- Outside Boundary Condition
  {f3f1c5bd-6b3e-453a-a890-d6ea6df1f411}, !- Outside Boundary Condition Object
  NoSun,                                  !- Sun Exposure
  NoWind,                                 !- Wind Exposure
  ,                                       !- View Factor to Ground
  ,                                       !- Number of Vertices
  3, 3, 4,                                !- X,Y,Z Vertex 1 {m}
  3, 3, 0,                                !- X,Y,Z Vertex 2 {m}
  0, 0, 0,                                !- X,Y,Z Vertex 3 {m}
  0, 0, 4;                                !- X,Y,Z Vertex 4 {m}

OS:Surface,
  {7cb1b4ab-94ff-4ca2-a951-0519e54baad1}, !- Handle
  Surface 22,                             !- Name
  Wall,                                   !- Surface Type
  ,                                       !- Construction Name
  {b63c3d41-8dd9-43b2-b173-c1b6457c46b7}, !- Space Name
  Surface,                                !- Outside Boundary Condition
  {bd14b7df-5a0c-498c-a933-0287928647f8}, !- Outside Boundary Condition Object
  NoSun,                                  !- Sun Exposure
  NoWind,                                 !- Wind Exposure
  ,                                       !- View Factor to Ground
  ,                                       !- Number of Vertices
  25.2807354925575, 3, 4,                 !- X,Y,Z Vertex 1 {m}
  25.2807354925575, 3, 0,                 !- X,Y,Z Vertex 2 {m}
  3, 3, 0,                                !- X,Y,Z Vertex 3 {m}
  3, 3, 4;                                !- X,Y,Z Vertex 4 {m}

OS:Surface,
  {04cad5b5-9454-4368-9929-4469881b9e4c}, !- Handle
  Surface 23,                             !- Name
  Wall,                                   !- Surface Type
  ,                                       !- Construction Name
  {b63c3d41-8dd9-43b2-b173-c1b6457c46b7}, !- Space Name
  Surface,                                !- Outside Boundary Condition
  {14c8af45-c94c-49f7-84b3-4ce11fef7ba9}, !- Outside Boundary Condition Object
  NoSun,                                  !- Sun Exposure
  NoWind,                                 !- Wind Exposure
  ,                                       !- View Factor to Ground
  ,                                       !- Number of Vertices
  28.2807354925575, 0, 4,                 !- X,Y,Z Vertex 1 {m}
  28.2807354925575, 0, 0,                 !- X,Y,Z Vertex 2 {m}
  25.2807354925575, 3, 0,                 !- X,Y,Z Vertex 3 {m}
  25.2807354925575, 3, 4;                 !- X,Y,Z Vertex 4 {m}

OS:Surface,
  {8330bbf1-251b-4375-99be-7affb54438fe}, !- Handle
  Surface 24,                             !- Name
  RoofCeiling,                            !- Surface Type
  ,                                       !- Construction Name
  {b63c3d41-8dd9-43b2-b173-c1b6457c46b7}, !- Space Name
  Surface,                                !- Outside Boundary Condition
  {e8de3318-fa15-474f-8910-d8c7cfdc56cd}, !- Outside Boundary Condition Object
  NoSun,                                  !- Sun Exposure
  NoWind,                                 !- Wind Exposure
  ,                                       !- View Factor to Ground
  ,                                       !- Number of Vertices
  25.2807354925575, 3, 4,                 !- X,Y,Z Vertex 1 {m}
  3, 3, 4,                                !- X,Y,Z Vertex 2 {m}
  0, 0, 4,                                !- X,Y,Z Vertex 3 {m}
  28.2807354925575, 0, 4;                 !- X,Y,Z Vertex 4 {m}

OS:Space,
  {b576a73b-2042-4076-8133-aba4c5574e0a}, !- Handle
  Story 1 Core Space,                     !- Name
  ,                                       !- Space Type Name
  ,                                       !- Default Construction Set Name
  ,                                       !- Default Schedule Set Name
  -0,                                     !- Direction of Relative North {deg}
  3,                                      !- X Origin {m}
  3,                                      !- Y Origin {m}
  0,                                      !- Z Origin {m}
  {60027814-9cf2-4f19-984c-84aceff397ba}, !- Building Story Name
  {3769741e-1373-45ef-9519-c58aca577b30}; !- Thermal Zone Name

OS:Surface,
  {82e6e1a7-8414-4ca6-9c71-294823b884e2}, !- Handle
  Surface 25,                             !- Name
  Floor,                                  !- Surface Type
  ,                                       !- Construction Name
  {b576a73b-2042-4076-8133-aba4c5574e0a}, !- Space Name
  Ground,                                 !- Outside Boundary Condition
  ,                                       !- Outside Boundary Condition Object
  NoSun,                                  !- Sun Exposure
  NoWind,                                 !- Wind Exposure
  ,                                       !- View Factor to Ground
  ,                                       !- Number of Vertices
  0, 0, 0,                                !- X,Y,Z Vertex 1 {m}
  0, 22.2807354925575, 0,                 !- X,Y,Z Vertex 2 {m}
  22.2807354925575, 22.2807354925575, 0,  !- X,Y,Z Vertex 3 {m}
  22.2807354925575, 0, 0;                 !- X,Y,Z Vertex 4 {m}

OS:Surface,
  {e91403b6-56d3-450a-8de9-acec4f4bf76b}, !- Handle
  Surface 26,                             !- Name
  Wall,                                   !- Surface Type
  ,                                       !- Construction Name
  {b576a73b-2042-4076-8133-aba4c5574e0a}, !- Space Name
  Surface,                                !- Outside Boundary Condition
  {1b9a01aa-7108-48b6-b9fa-c0d986c5cf8d}, !- Outside Boundary Condition Object
  NoSun,                                  !- Sun Exposure
  NoWind,                                 !- Wind Exposure
  ,                                       !- View Factor to Ground
  ,                                       !- Number of Vertices
  0, 22.2807354925575, 4,                 !- X,Y,Z Vertex 1 {m}
  0, 22.2807354925575, 0,                 !- X,Y,Z Vertex 2 {m}
  0, 0, 0,                                !- X,Y,Z Vertex 3 {m}
  0, 0, 4;                                !- X,Y,Z Vertex 4 {m}

OS:Surface,
  {696c9bba-f567-4ee8-8ed7-0fdf8af9b7bb}, !- Handle
  Surface 27,                             !- Name
  Wall,                                   !- Surface Type
  ,                                       !- Construction Name
  {b576a73b-2042-4076-8133-aba4c5574e0a}, !- Space Name
  Surface,                                !- Outside Boundary Condition
  {5e4b8963-7274-495e-862d-592b34d4fd3d}, !- Outside Boundary Condition Object
  NoSun,                                  !- Sun Exposure
  NoWind,                                 !- Wind Exposure
  ,                                       !- View Factor to Ground
  ,                                       !- Number of Vertices
  22.2807354925575, 22.2807354925575, 4,  !- X,Y,Z Vertex 1 {m}
  22.2807354925575, 22.2807354925575, 0,  !- X,Y,Z Vertex 2 {m}
  0, 22.2807354925575, 0,                 !- X,Y,Z Vertex 3 {m}
  0, 22.2807354925575, 4;                 !- X,Y,Z Vertex 4 {m}

OS:Surface,
  {fcecc7de-e724-4f43-a1f5-1eca0e901120}, !- Handle
  Surface 28,                             !- Name
  Wall,                                   !- Surface Type
  ,                                       !- Construction Name