
OS:Version,
  {5c908964-6ba2-4eaa-8e62-123895ef5b00}, !- Handle
  0.10.0;                                 !- Version Identifier

OS:BuildingStory,
  {6ad88c9c-cb74-4953-a7c6-1a1627cf0721}, !- Handle
  Story 1,                                !- Name
  0,                                      !- Nominal Z Coordinate {m}
  4,                                      !- Nominal Floor to Floor Height {m}
  ,                                       !- Default Construction Set Name
  ,                                       !- Default Schedule Set Name
  ;                                       !- Group Rendering Name

OS:Space,
  {6f275e96-d7ac-4fe7-bf71-f6ee473c6538}, !- Handle
  Story 1 West Perimeter Space,           !- Name
  ,                                       !- Space Type Name
  ,                                       !- Default Construction Set Name
  ,                                       !- Default Schedule Set Name
  -0,                                     !- Direction of Relative North {deg}
  0,                                      !- X Origin {m}
  0,                                      !- Y Origin {m}
  0,                                      !- Z Origin {m}
  {6ad88c9c-cb74-4953-a7c6-1a1627cf0721}, !- Building Story Name
  {01d34bac-8492-4a5e-babd-066525601fa7}; !- Thermal Zone Name

OS:Surface,
  {fe47e325-ff9a-46cc-92d2-409f3571e1bd}, !- Handle
  Surface 1,                              !- Name
  Floor,                                  !- Surface Type
  ,                                       !- Construction Name
  {6f275e96-d7ac-4fe7-bf71-f6ee473c6538}, !- Space Name
  Ground,                                 !- Outside Boundary Condition
  ,                                       !- Outside Boundary Condition Object
  NoSun,                                  !- Sun Exposure
  NoWind,                                 !- Wind Exposure
  ,                                       !- View Factor to Ground
  ,                                       !- Number of Vertices
  0, 0, 0,                                !- X,Y,Z Vertex 1 {m}
  0, 9.68245836551854, 0,                 !- X,Y,Z Vertex 2 {m}
  3, 6.68245836551854, 0,                 !- X,Y,Z Vertex 3 {m}
  3, 3, 0;                                !- X,Y,Z Vertex 4 {m}

OS:Surface,
  {5f308bc7-985a-4029-8598-58e33438bc7f}, !- Handle
  Surface 2,                              !- Name
  Wall,                                   !- Surface Type
  ,                                       !- Construction Name
  {6f275e96-d7ac-4fe7-bf71-f6ee473c6538}, !- Space Name
  Outdoors,                               !- Outside Boundary Condition
  ,                                       !- Outside Boundary Condition Object
  SunExposed,                             !- Sun Exposure
  WindExposed,                            !- Wind Exposure
  ,                                       !- View Factor to Ground
  ,                                       !- Number of Vertices
  0, 9.68245836551854, 4,                 !- X,Y,Z Vertex 1 {m}
  0, 9.68245836551854, 0,                 !- X,Y,Z Vertex 2 {m}
  0, 0, 0,                                !- X,Y,Z Vertex 3 {m}
  0, 0, 4;                                !- X,Y,Z Vertex 4 {m}

OS:Surface,
  {3fb5dd9d-4d1b-44ed-8348-0477f98c04d2}, !- Handle
  Surface 3,                              !- Name
  Wall,                                   !- Surface Type
  ,                                       !- Construction Name
  {6f275e96-d7ac-4fe7-bf71-f6ee473c6538}, !- Space Name
  Surface,                                !- Outside Boundary Condition
  {f3854e71-b88e-40d0-8e1c-d9e42128cfed}, !- Outside Boundary Condition Object
  NoSun,                                  !- Sun Exposure
  NoWind,                                 !- Wind Exposure
  ,                                       !- View Factor to Ground
  ,                                       !- Number of Vertices
  3, 6.68245836551854, 4,                 !- X,Y,Z Vertex 1 {m}
  3, 6.68245836551854, 0,                 !- X,Y,Z Vertex 2 {m}
  0, 9.68245836551854, 0,                 !- X,Y,Z Vertex 3 {m}
  0, 9.68245836551854, 4;                 !- X,Y,Z Vertex 4 {m}

OS:Surface,
  {e59d7585-a26a-43ef-bc18-1988ed103067}, !- Handle
  Surface 4,                              !- Name
  Wall,                                   !- Surface Type
  ,                                       !- Construction Name
  {6f275e96-d7ac-4fe7-bf71-f6ee473c6538}, !- Space Name
  Surface,                                !- Outside Boundary Condition
  {ecb14fc0-992a-4e91-932a-7c555044799a}, !- Outside Boundary Condition Object
  NoSun,                                  !- Sun Exposure
  NoWind,                                 !- Wind Exposure
  ,                                       !- View Factor to Ground
  ,                                       !- Number of Vertices
  3, 3, 4,                                !- X,Y,Z Vertex 1 {m}
  3, 3, 0,                                !- X,Y,Z Vertex 2 {m}
  3, 6.68245836551854, 0,                 !- X,Y,Z Vertex 3 {m}
  3, 6.68245836551854, 4;                 !- X,Y,Z Vertex 4 {m}

OS:Surface,
  {82fb62fe-5428-45ec-82bb-26c34219c2ee}, !- Handle
  Surface 5,                              !- Name
  Wall,                                   !- Surface Type
  ,                                       !- Construction Name
  {6f275e96-d7ac-4fe7-bf71-f6ee473c6538}, !- Space Name
  Surface,                                !- Outside Boundary Condition
  {3eaf0585-4595-4bd8-941a-189289fdeb06}, !- Outside Boundary Condition Object
  NoSun,                                  !- Sun Exposure
  NoWind,                                 !- Wind Exposure
  ,                                       !- View Factor to Ground
  ,                                       !- Number of Vertices
  0, 0, 4,                                !- X,Y,Z Vertex 1 {m}
  0, 0, 0,                                !- X,Y,Z Vertex 2 {m}
  3, 3, 0,                                !- X,Y,Z Vertex 3 {m}
  3, 3, 4;                                !- X,Y,Z Vertex 4 {m}

OS:Surface,
  {dfe71038-c619-4582-b9e4-0398aa035563}, !- Handle
  Surface 6,                              !- Name
  RoofCeiling,                            !- Surface Type
  ,                                       !- Construction Name
  {6f275e96-d7ac-4fe7-bf71-f6ee473c6538}, !- Space Name
  Surface,                                !- Outside Boundary Condition
  {6d40b1fa-cba7-49df-9b83-7a4cb2ea7613}, !- Outside Boundary Condition Object
  NoSun,                                  !- Sun Exposure
  NoWind,                                 !- Wind Exposure
  ,                                       !- View Factor to Ground
  ,                                       !- Number of Vertices
  3, 3, 4,                                !- X,Y,Z Vertex 1 {m}
  3, 6.68245836551854, 4,                 !- X,Y,Z Vertex 2 {m}
  0, 9.68245836551854, 4,                 !- X,Y,Z Vertex 3 {m}
  0, 0, 4;                                !- X,Y,Z Vertex 4 {m}

OS:Space,
  {81359da7-4aac-4307-bd86-44ce1160628a}, !- Handle
  Story 1 North Perimeter Space,          !- Name
  ,                                       !- Space Type Name
  ,                                       !- Default Construction Set Name
  ,                                       !- Default Schedule Set Name
  -0,                                     !- Direction of Relative North {deg}
  3,                                      !- X Origin {m}
  6.68245836551854,                       !- Y Origin {m}
  0,                                      !- Z Origin {m}
  {6ad88c9c-cb74-4953-a7c6-1a1627cf0721}, !- Building Story Name
  {5051fb86-0566-4576-a7a1-1ee4f582d4dc}; !- Thermal Zone Name

OS:Surface,
  {e4122d15-e826-4267-a25d-846419b96b66}, !- Handle
  Surface 7,                              !- Name
  Floor,                                  !- Surface Type
  ,                                       !- Construction Name
  {81359da7-4aac-4307-bd86-44ce1160628a}, !- Space Name
  Ground,                                 !- Outside Boundary Condition
  ,                                       !- Outside Boundary Condition Object
  NoSun,                                  !- Sun Exposure
  NoWind,                                 !- Wind Exposure
  ,                                       !- View Factor to Ground
  ,                                       !- Number of Vertices
  -3, 3, 0,                               !- X,Y,Z Vertex 1 {m}
  6.68245836551854, 3, 0,                 !- X,Y,Z Vertex 2 {m}
  3.68245836551854, -1.77635683940025e-15, 0, !- X,Y,Z Vertex 3 {m}
  0, -1.77635683940025e-15, 0;            !- X,Y,Z Vertex 4 {m}

OS:Surface,
  {0f5ecb21-a8ef-4b64-829f-7e3600c80fff}, !- Handle
  Surface 8,                              !- Name
  Wall,                                   !- Surface Type
  ,                                       !- Construction Name
  {81359da7-4aac-4307-bd86-44ce1160628a}, !- Space Name
  Outdoors,                               !- Outside Boundary Condition
  ,                                       !- Outside Boundary Condition Object
  SunExposed,                             !- Sun Exposure
  WindExposed,                            !- Wind Exposure
  ,                                       !- View Factor to Ground
  ,                                       !- Number of Vertices
  6.68245836551854, 3, 4,                 !- X,Y,Z Vertex 1 {m}
  6.68245836551854, 3, 0,                 !- X,Y,Z Vertex 2 {m}
  -3, 3, 0,                               !- X,Y,Z Vertex 3 {m}
  -3, 3, 4;                               !- X,Y,Z Vertex 4 {m}

OS:Surface,
  {bac8613d-b246-4c20-bd23-a15a1e9c9d58}, !- Handle
  Surface 9,                              !- Name
  Wall,                                   !- Surface Type
  ,                                       !- Construction Name
  {81359da7-4aac-4307-bd86-44ce1160628a}, !- Space Name
  Surface,                                !- Outside Boundary Condition
  {791b98a5-9129-48fd-8d57-994748ba099d}, !- Outside Boundary Condition Object
  NoSun,                                  !- Sun Exposure
  NoWind,                                 !- Wind Exposure
  ,                                       !- View Factor to Ground
  ,                                       !- Number of Vertices
  3.68245836551854, -1.77635683940025e-15, 4, !- X,Y,Z Vertex 1 {m}
  3.68245836551854, -1.77635683940025e-15, 0, !- X,Y,Z Vertex 2 {m}
  6.68245836551854, 3, 0,                 !- X,Y,Z Vertex 3 {m}
  6.68245836551854, 3, 4;                 !- X,Y,Z Vertex 4 {m}

OS:Surface,
  {df40f6ed-67f2-4a8e-b3b8-160bf7ebe910}, !- Handle
  Surface 10,                             !- Name
  Wall,                                   !- Surface Type
  ,                                       !- Construction Name
  {81359da7-4aac-4307-bd86-44ce1160628a}, !- Space Name
  Surface,                                !- Outside Boundary Condition
  {9e6f432f-f43f-4e15-97b3-aea313043310}, !- Outside Boundary Condition Object
  NoSun,                                  !- Sun Exposure
  NoWind,                                 !- Wind Exposure
  ,                                       !- View Factor to Ground
  ,                                       !- Number of Vertices
  0, -1.77635683940025e-15, 4,            !- X,Y,Z Vertex 1 {m}
  0, -1.77635683940025e-15, 0,            !- X,Y,Z Vertex 2 {m}
  3.68245836551854, -1.77635683940025e-15, 0, !- X,Y,Z Vertex 3 {m}
  3.68245836551854, -1.77635683940025e-15, 4; !- X,Y,Z Vertex 4 {m}

OS:Surface,
  {f3854e71-b88e-40d0-8e1c-d9e42128cfed}, !- Handle
  Surface 11,                             !- Name
  Wall,                                   !- Surface Type
  ,                                       !- Construction Name
  {81359da7-4aac-4307-bd86-44ce1160628a}, !- Space Name
  Surface,                                !- Outside Boundary Condition
  {3fb5dd9d-4d1b-44ed-8348-0477f98c04d2}, !- Outside Boundary Condition Object
  NoSun,                                  !- Sun Exposure
  NoWind,                                 !- Wind Exposure
  ,                                       !- View Factor to Ground
  ,                                       !- Number of Vertices
  -3, 3, 4,                               !- X,Y,Z Vertex 1 {m}
  -3, 3, 0,                               !- X,Y,Z Vertex 2 {m}
  0, -1.77635683940025e-15, 0,            !- X,Y,Z Vertex 3 {m}
  0, -1.77635683940025e-15, 4;            !- X,Y,Z Vertex 4 {m}

OS:Surface,
  {4e3aa956-c515-4ec7-bda2-8c0e88941427}, !- Handle
  Surface 12,                             !- Name
  RoofCeiling,                            !- Surface Type
  ,                                       !- Construction Name
  {81359da7-4aac-4307-bd86-44ce1160628a}, !- Space Name
  Surface,                                !- Outside Boundary Condition
  {01feb9c7-ad93-499f-9bb7-a8813f9488ad}, !- Outside Boundary Condition Object
  NoSun,                                  !- Sun Exposure
  NoWind,                                 !- Wind Exposure
  ,                                       !- View Factor to Ground
  ,                                       !- Number of Vertices
  0, -1.77635683940025e-15, 4,            !- X,Y,Z Vertex 1 {m}
  3.68245836551854, -1.77635683940025e-15, 4, !- X,Y,Z Vertex 2 {m}
  6.68245836551854, 3, 4,                 !- X,Y,Z Vertex 3 {m}
  -3, 3, 4;                               !- X,Y,Z Vertex 4 {m}

OS:Space,
  {98268dcf-e5cc-4dca-a1ee-911cc435e686}, !- Handle
  Story 1 East Perimeter Space,           !- Name
  ,                                       !- Space Type Name
  ,                                       !- Default Construction Set Name
  ,                                       !- Default Schedule Set Name
  -0,                                     !- Direction of Relative North {deg}
  6.68245836551854,                       !- X Origin {m}
  3,                                      !- Y Origin {m}
  0,                                      !- Z Origin {m}
  {6ad88c9c-cb74-4953-a7c6-1a1627cf0721}, !- Building Story Name
  {6312281b-1407-4016-826e-4534eb41d97e}; !- Thermal Zone Name

OS:Surface,
  {21127653-0038-4a23-8e62-9d214e764346}, !- Handle
  Surface 13,                             !- Name
  Floor,                                  !- Surface Type
  ,                                       !- Construction Name
  {98268dcf-e5cc-4dca-a1ee-911cc435e686}, !- Space Name
  Ground,                                 !- Outside Boundary Condition
  ,                                       !- Outside Boundary Condition Object
  NoSun,                                  !- Sun Exposure
  NoWind,                                 !- Wind Exposure
  ,                                       !- View Factor to Ground
  ,                                       !- Number of Vertices
  3, 6.68245836551854, 0,                 !- X,Y,Z Vertex 1 {m}
  3, -3, 0,                               !- X,Y,Z Vertex 2 {m}
  -1.77635683940025e-15, 0, 0,            !- X,Y,Z Vertex 3 {m}
  -1.77635683940025e-15, 3.68245836551854, 0; !- X,Y,Z Vertex 4 {m}

OS:Surface,
  {aa965036-0814-473c-b947-8f5760fac8c6}, !- Handle
  Surface 14,                             !- Name
  Wall,                                   !- Surface Type
  ,                                       !- Construction Name
  {98268dcf-e5cc-4dca-a1ee-911cc435e686}, !- Space Name
  Outdoors,                               !- Outside Boundary Condition
  ,                                       !- Outside Boundary Condition Object
  SunExposed,                             !- Sun Exposure
  WindExposed,                            !- Wind Exposure
  ,                                       !- View Factor to Ground
  ,                                       !- Number of Vertices
  3, -3, 4,                               !- X,Y,Z Vertex 1 {m}
  3, -3, 0,                               !- X,Y,Z Vertex 2 {m}
  3, 6.68245836551854, 0,                 !- X,Y,Z Vertex 3 {m}
  3, 6.68245836551854, 4;                 !- X,Y,Z Vertex 4 {m}

OS:Surface,
  {9c8133db-0763-4209-9809-c71843815b55}, !- Handle
  Surface 15,                             !- Name
  Wall,                                   !- Surface Type
  ,                                       !- Construction Name
  {98268dcf-e5cc-4dca-a1ee-911cc435e686}, !- Space Name
  Surface,                                !- Outside Boundary Condition
  {1dfa6085-7ec0-4139-b690-6d9bd3a41afa}, !- Outside Boundary Condition Object
  NoSun,                                  !- Sun Exposure
  NoWind,                                 !- Wind Exposure
  ,                                       !- View Factor to Ground
  ,                                       !- Number of Vertices
  -1.77635683940025e-15, 0, 4,            !- X,Y,Z Vertex 1 {m}
  -1.77635683940025e-15, 0, 0,            !- X,Y,Z Vertex 2 {m}
  3, -3, 0,                               !- X,Y,Z Vertex 3 {m}
  3, -3, 4;                               !- X,Y,Z Vertex 4 {m}

OS:Surface,
  {ffc5da72-e101-4850-b952-a745d3752c9a}, !- Handle
  Surface 16,                             !- Name
  Wall,                                   !- Surface Type
  ,                                       !- Construction Name
  {98268dcf-e5cc-4dca-a1ee-911cc435e686}, !- Space Name
  Surface,                                !- Outside Boundary Condition
  {e86fd51a-9ade-4f1a-8a81-e25f5ba6a7c5}, !- Outside Boundary Condition Object
  NoSun,                                  !- Sun Exposure
  NoWind,                                 !- Wind Exposure
  ,                                       !- View Factor to Ground
  ,                                       !- Number of Vertices
  -1.77635683940025e-15, 3.68245836551854, 4, !- X,Y,Z Vertex 1 {m}
  -1.77635683940025e-15, 3.68245836551854, 0, !- X,Y,Z Vertex 2 {m}
  -1.77635683940025e-15, 0, 0,            !- X,Y,Z Vertex 3 {m}
  -1.77635683940025e-15, 0, 4;            !- X,Y,Z Vertex 4 {m}

OS:Surface,
  {791b98a5-9129-48fd-8d57-994748ba099d}, !- Handle
  Surface 17,                             !- Name
  Wall,                                   !- Surface Type
  ,                                       !- Construction Name
  {98268dcf-e5cc-4dca-a1ee-911cc435e686}, !- Space Name
  Surface,                                !- Outside Boundary Condition
  {bac8613d-b246-4c20-bd23-a15a1e9c9d58}, !- Outside Boundary Condition Object
  NoSun,                                  !- Sun Exposure
  NoWind,                                 !- Wind Exposure
  ,                                       !- View Factor to Ground
  ,                                       !- Number of Vertices
  3, 6.68245836551854, 4,                 !- X,Y,Z Vertex 1 {m}
  3, 6.68245836551854, 0,                 !- X,Y,Z Vertex 2 {m}
  -1.77635683940025e-15, 3.68245836551854, 0, !- X,Y,Z Vertex 3 {m}
  -1.77635683940025e-15, 3.68245836551854, 4; !- X,Y,Z Vertex 4 {m}

OS:Surface,
  {7af8856b-ea40-4a30-9242-452b066a7ceb}, !- Handle
  Surface 18,                             !- Name
  RoofCeiling,                            !- Surface Type
  ,                                       !- Construction Name
  {98268dcf-e5cc-4dca-a1ee-911cc435e686}, !- Space Name
  Surface,                                !- Outside Boundary Condition
  {970156df-d2d2-40de-8086-fcf86dee8087}, !- Outside Boundary Condition Object
  NoSun,                                  !- Sun Exposure
  NoWind,                                 !- Wind Exposure
  ,                                       !- View Factor to Ground
  ,                                       !- Number of Vertices
  -1.77635683940025e-15, 3.68245836551854, 4, !- X,Y,Z Vertex 1 {m}
  -1.77635683940025e-15, 0, 4,            !- X,Y,Z Vertex 2 {m}
  3, -3, 4,                               !- X,Y,Z Vertex 3 {m}
  3, 6.68245836551854, 4;                 !- X,Y,Z Vertex 4 {m}

OS:Space,
  {2543defc-273a-4e83-9532-9b88d2b3e2d6}, !- Handle
  Story 1 South Perimeter Space,          !- Name
  ,                                       !- Space Type Name
  ,                                       !- Default Construction Set Name
  ,                                       !- Default Schedule Set Name
  -0,                                     !- Direction of Relative North {deg}
  0,                                      !- X Origin {m}
  0,                                      !- Y Origin {m}
  0,                                      !- Z Origin {m}
  {6ad88c9c-cb74-4953-a7c6-1a1627cf0721}, !- Building Story Name
  {243fd289-8987-4d99-ac67-88f68f46f5b4}; !- Thermal Zone Name

OS:Surface,
  {9dc4037d-277f-488c-9e26-273194ab7c23}, !- Handle
  Surface 19,                             !- Name
  Floor,                                  !- Surface Type
  ,                                       !- Construction Name
  {2543defc-273a-4e83-9532-9b88d2b3e2d6}, !- Space Name
  Ground,                                 !- Outside Boundary Condition
  ,                                       !- Outside Boundary Condition Object
  NoSun,                                  !- Sun Exposure
  NoWind,                                 !- Wind Exposure
  ,                                       !- View Factor to Ground
  ,                                       !- Number of Vertices
  9.68245836551854, 0, 0,                 !- X,Y,Z Vertex 1 {m}
  0, 0, 0,                                !- X,Y,Z Vertex 2 {m}
  3, 3, 0,                                !- X,Y,Z Vertex 3 {m}
  6.68245836551854, 3, 0;                 !- X,Y,Z Vertex 4 {m}

OS:Surface,
  {baa698bb-f32e-44ad-bcc7-b467091e4f18}, !- Handle
  Surface 20,                             !- Name
  Wall,                                   !- Surface Type
  ,                                       !- Construction Name
  {2543defc-273a-4e83-9532-9b88d2b3e2d6}, !- Space Name
  Outdoors,                               !- Outside Boundary Condition
  ,                                       !- Outside Boundary Condition Object
  SunExposed,                             !- Sun Exposure
  WindExposed,                            !- Wind Exposure
  ,                                       !- View Factor to Ground
  ,                                       !- Number of Vertices
  0, 0, 4,                                !- X,Y,Z Vertex 1 {m}
  0, 0, 0,                                !- X,Y,Z Vertex 2 {m}
  9.68245836551854, 0, 0,                 !- X,Y,Z Vertex 3 {m}
  9.68245836551854, 0, 4;                 !- X,Y,Z Vertex 4 {m}

OS:Surface,
  {3eaf0585-4595-4bd8-941a-189289fdeb06}, !- Handle
  Surface 21,                             !- Name
  Wall,                                   !- Surface Type
  ,                                       !- Construction Name
  {2543defc-273a-4e83-9532-9b88d2b3e2d6}, !- Space Name
  Surface,                                !- Outside Boundary Condition
  {82fb62fe-5428-45ec-82bb-26c34219c2ee}, !- Outside Boundary Condition Object
  NoSun,                                  !- Sun Exposure
  NoWind,                                 !- Wind Exposure
  ,                                       !- View Factor to Ground
  ,                                       !- Number of Vertices
  3, 3, 4,                                !- X,Y,Z Vertex 1 {m}
  3, 3, 0,                                !- X,Y,Z Vertex 2 {m}
  0, 0, 0,                                !- X,Y,Z Vertex 3 {m}
  0, 0, 4;                                !- X,Y,Z Vertex 4 {m}

OS:Surface,
  {55feb531-147a-4f06-9986-761d452ec94c}, !- Handle
  Surface 22,                             !- Name
  Wall,                                   !- Surface Type
  ,                                       !- Construction Name
  {2543defc-273a-4e83-9532-9b88d2b3e2d6}, !- Space Name
  Surface,                                !- Outside Boundary Condition
  {546c0d2e-3eb2-4e9e-b617-27874433029e}, !- Outside Boundary Condition Object
  NoSun,                                  !- Sun Exposure
  NoWind,                                 !- Wind Exposure
  ,                                       !- View Factor to Ground
  ,                                       !- Number of Vertices
  6.68245836551854, 3, 4,                 !- X,Y,Z Vertex 1 {m}
  6.68245836551854, 3, 0,                 !- X,Y,Z Vertex 2 {m}
  3, 3, 0,                                !- X,Y,Z Vertex 3 {m}
  3, 3, 4;                                !- X,Y,Z Vertex 4 {m}

OS:Surface,
  {1dfa6085-7ec0-4139-b690-6d9bd3a41afa}, !- Handle
  Surface 23,                             !- Name
  Wall,                                   !- Surface Type
  ,                                       !- Construction Name
  {2543defc-273a-4e83-9532-9b88d2b3e2d6}, !- Space Name
  Surface,                                !- Outside Boundary Condition
  {9c8133db-0763-4209-9809-c71843815b55}, !- Outside Boundary Condition Object
  NoSun,                                  !- Sun Exposure
  NoWind,                                 !- Wind Exposure
  ,                                       !- View Factor to Ground
  ,                                       !- Number of Vertices
  9.68245836551854, 0, 4,                 !- X,Y,Z Vertex 1 {m}
  9.68245836551854, 0, 0,                 !- X,Y,Z Vertex 2 {m}
  6.68245836551854, 3, 0,                 !- X,Y,Z Vertex 3 {m}
  6.68245836551854, 3, 4;                 !- X,Y,Z Vertex 4 {m}

OS:Surface,
  {d550027f-bd64-462c-87c1-29f519e51cf4}, !- Handle
  Surface 24,                             !- Name
  RoofCeiling,                            !- Surface Type
  ,                                       !- Construction Name
  {2543defc-273a-4e83-9532-9b88d2b3e2d6}, !- Space Name
  Surface,                                !- Outside Boundary Condition
  {1f694f44-8390-4917-83cc-e841dd1cf1b9}, !- Outside Boundary Condition Object
  NoSun,                                  !- Sun Exposure
  NoWind,                                 !- Wind Exposure
  ,                                       !- View Factor to Ground
  ,                                       !- Number of Vertices
  6.68245836551854, 3, 4,                 !- X,Y,Z Vertex 1 {m}
  3, 3, 4,                                !- X,Y,Z Vertex 2 {m}
  0, 0, 4,                                !- X,Y,Z Vertex 3 {m}
  9.68245836551854, 0, 4;                 !- X,Y,Z Vertex 4 {m}

OS:Space,
  {96892095-dbf9-49c5-8c25-804b6f54dd43}, !- Handle
  Story 1 Core Space,                     !- Name
  ,                                       !- Space Type Name
  ,                                       !- Default Construction Set Name
  ,                                       !- Default Schedule Set Name
  -0,                                     !- Direction of Relative North {deg}
  3,                                      !- X Origin {m}
  3,                                      !- Y Origin {m}
  0,                                      !- Z Origin {m}
  {6ad88c9c-cb74-4953-a7c6-1a1627cf0721}, !- Building Story Name
  {3ce5ca53-8c70-4015-91db-273ed779c234}; !- Thermal Zone Name

OS:Surface,
  {b9d0bfec-53e7-41bd-be4c-92e8be220f51}, !- Handle
  Surface 25,                             !- Name
  Floor,                                  !- Surface Type
  ,                                       !- Construction Name
  {96892095-dbf9-49c5-8c25-804b6f54dd43}, !- Space Name
  Ground,                                 !- Outside Boundary Condition
  ,                                       !- Outside Boundary Condition Object
  NoSun,                                  !- Sun Exposure
  NoWind,                                 !- Wind Exposure
  ,                                       !- View Factor to Ground
  ,                                       !- Number of Vertices
  0, 0, 0,                                !- X,Y,Z Vertex 1 {m}
  0, 3.68245836551854, 0,                 !- X,Y,Z Vertex 2 {m}
  3.68245836551854, 3.68245836551854, 0,  !- X,Y,Z Vertex 3 {m}
  3.68245836551854, 0, 0;                 !- X,Y,Z Vertex 4 {m}

OS:Surface,
  {ecb14fc0-992a-4e91-932a-7c555044799a}, !- Handle
  Surface 26,                             !- Name
  Wall,                                   !- Surface Type
  ,                                       !- Construction Name
  {96892095-dbf9-49c5-8c25-804b6f54dd43}, !- Space Name
  Surface,                                !- Outside Boundary Condition
  {e59d7585-a26a-43ef-bc18-1988ed103067}, !- Outside Boundary Condition Object
  NoSun,                                  !- Sun Exposure
  NoWind,                                 !- Wind Exposure
  ,                                       !- View Factor to Ground
  ,                                       !- Number of Vertices
  0, 3.68245836551854, 4,                 !- X,Y,Z Vertex 1 {m}
  0, 3.68245836551854, 0,                 !- X,Y,Z Vertex 2 {m}
  0, 0, 0,                                !- X,Y,Z Vertex 3 {m}
  0, 0, 4;                                !- X,Y,Z Vertex 4 {m}

OS:Surface,
  {9e6f432f-f43f-4e15-97b3-aea313043310}, !- Handle
  Surface 27,                             !- Name
  Wall,                                   !- Surface Type
  ,                                       !- Construction Name
  {96892095-dbf9-49c5-8c25-804b6f54dd43}, !- Space Name
  Surface,                                !- Outside Boundary Condition
  {df40f6ed-67f2-4a8e-b3b8-160bf7ebe910}, !- Outside Boundary Condition Object
  NoSun,                                  !- Sun Exposure
  NoWind,                                 !- Wind Exposure
  ,                                       !- View Factor to Ground
  ,                                       !- Number of Vertices
  3.68245836551854, 3.68245836551854, 4,  !- X,Y,Z Vertex 1 {m}
  3.68245836551854, 3.68245836551854, 0,  !- X,Y,Z Vertex 2 {m}
  0, 3.68245836551854, 0,                 !- X,Y,Z Vertex 3 {m}
  0, 3.68245836551854, 4;                 !- X,Y,Z Vertex 4 {m}

OS:Surface,
  {e86fd51a-9ade-4f1a-8a81-e25f5ba6a7c5}, !- Handle
  Surface 28,                             !- Name
  Wall,                                   !- Surface Type
  ,                                       !- Construction Name