
Version,
  7.2;                                    !- Version Identifier

SimulationControl,
  Yes,                                    !- Do Zone Sizing Calculation
  Yes,                                    !- Do System Sizing Calculation
  Yes,                                    !- Do Plant Sizing Calculation
  Yes,                                    !- Run Simulation for Sizing Periods
  Yes;                                    !- Run Simulation for Weather File Run Periods

ProgramControl,
  1;                                      !- Number of Threads Allowed

Sizing:Parameters,
  1.25,                                   !- Heating Sizing Factor
  1.15;                                   !- Cooling Sizing Factor

RunPeriod,
  Run Period 1,                           !- Name
  1,                                      !- Begin Month
  1,                                      !- Begin Day of Month
  12,                                     !- End Month
  31,                                     !- End Day of Month
  Thursday,                               !- Day of Week for Start Day
  Yes,                                    !- Use Weather File Holidays and Special Days
  Yes,                                    !- Use Weather File Daylight Saving Period
  No,                                     !- Apply Weekend Holiday Rule
  Yes,                                    !- Use Weather File Rain Indicators
  Yes,                                    !- Use Weather File Snow Indicators
  1;                                      !- Number of Times Runperiod to be Repeated

GlobalGeometryRules,
  UpperLeftCorner,                        !- Starting Vertex Position
  Counterclockwise,                       !- Vertex Entry Direction
  Relative,                               !- Coordinate System
  Relative,                               !- Daylighting Reference Point Coordinate System
  Relative;                               !- Rectangular Surface Coordinate System

ScheduleTypeLimits,
  Temperature 1,                          !- Name
  ,                                       !- Lower Limit Value {BasedOnField A3}
  ,                                       !- Upper Limit Value {BasedOnField A3}
  Continuous,                             !- Numeric Type
  temperature;                            !- Unit Type

ScheduleTypeLimits,
  Temperature 3,                          !- Name
  ,                                       !- Lower Limit Value {BasedOnField A3}
  ,                                       !- Upper Limit Value {BasedOnField A3}
  Continuous,                             !- Numeric Type
  temperature;                            !- Unit Type

ScheduleTypeLimits,
  Temperature 2,                          !- Name
  ,                                       !- Lower Limit Value {BasedOnField A3}
  ,                                       !- Upper Limit Value {BasedOnField A3}
  Continuous,                             !- Numeric Type
  temperature;                            !- Unit Type

ScheduleTypeLimits,
  ActivityLevel 13,                       !- Name
  0,                                      !- Lower Limit Value {BasedOnField A3}
  ,                                       !- Upper Limit Value {BasedOnField A3}
  Continuous,                             !- Numeric Type
  activitylevel;                          !- Unit Type

ScheduleTypeLimits,
  Temperature,                            !- Name
  ,                                       !- Lower Limit Value {BasedOnField A3}
  ,                                       !- Upper Limit Value {BasedOnField A3}
  Continuous,                             !- Numeric Type
  temperature;                            !- Unit Type

ScheduleTypeLimits,
  OnOff,                                  !- Name
  0,                                      !- Lower Limit Value {BasedOnField A3}
  1,                                      !- Upper Limit Value {BasedOnField A3}
  Discrete,                               !- Numeric Type
  availability;                           !- Unit Type

ScheduleTypeLimits,
  Fraction,                               !- Name
  0,                                      !- Lower Limit Value {BasedOnField A3}
  1,                                      !- Upper Limit Value {BasedOnField A3}
  CONTINUOUS;                             !- Numeric Type

Schedule:Day:Interval,
  Hot_Water_Temperature_Winter_Design_Day, !- Name
  Temperature 1,                          !- Schedule Type Limits Name
  No,                                     !- Interpolate to Timestep
  24:00,                                  !- Time 1 {hh:mm}
  67;                                     !- Value Until Time 1

Schedule:Day:Interval,
  Always_On_Winter_Design_Day,            !- Name
  OnOff,                                  !- Schedule Type Limits Name
  No,                                     !- Interpolate to Timestep
  24:00,                                  !- Time 1 {hh:mm}
  1;                                      !- Value Until Time 1

Schedule:Day:Interval,
  Chilled_Water_Temperature_Winter_Design_Day, !- Name
  ,                                       !- Schedule Type Limits Name
  No,                                     !- Interpolate to Timestep
  24:00,                                  !- Time 1 {hh:mm}
  6.7;                                    !- Value Until Time 1

Schedule:Day:Interval,
  Medium Office_Bldg_Occ Winter Design Day, !- Name
  Fraction,                               !- Schedule Type Limits Name
  No,                                     !- Interpolate to Timestep
  24:00,                                  !- Time 1 {hh:mm}
  0;                                      !- Value Until Time 1

Schedule:Day:Interval,
  Medium Office_Bldg_Equip Summer Design Day, !- Name
  Fraction,                               !- Schedule Type Limits Name
  No,                                     !- Interpolate to Timestep
  24:00,                                  !- Time 1 {hh:mm}
  1;                                      !- Value Until Time 1

Schedule:Day:Interval,
  Medium Office_Infil_Quarter_On Summer Design Day, !- Name
  Fraction,                               !- Schedule Type Limits Name
  No,                                     !- Interpolate to Timestep
  06:00,                                  !- Time 1 {hh:mm}
  1,                                      !- Value Until Time 1
  22:00,                                  !- Time 2 {hh:mm}
  0.25,                                   !- Value Until Time 2
  24:00,                                  !- Time 3 {hh:mm}
  1;                                      !- Value Until Time 3

Schedule:Day:Interval,
  Medium Office_Activity Winter Design Day, !- Name
  ActivityLevel 13,                       !- Schedule Type Limits Name
  No,                                     !- Interpolate to Timestep
  24:00,                                  !- Time 1 {hh:mm}
  120;                                    !- Value Until Time 1

Schedule:Day:Interval,
  Always_On_Default,                      !- Name
  OnOff,                                  !- Schedule Type Limits Name
  No,                                     !- Interpolate to Timestep
  24:00,                                  !- Time 1 {hh:mm}
  1;                                      !- Value Until Time 1

Schedule:Day:Interval,
  Medium Office_Bldg_Equip Rule 2 Day Schedule, !- Name
  Fraction,                               !- Schedule Type Limits Name
  No,                                     !- Interpolate to Timestep
  06:00,                                  !- Time 1 {hh:mm}
  0.3,                                    !- Value Until Time 1
  08:00,                                  !- Time 2 {hh:mm}
  0.4,                                    !- Value Until Time 2
  14:00,                                  !- Time 3 {hh:mm}
  0.5,                                    !- Value Until Time 3
  17:00,                                  !- Time 4 {hh:mm}
  0.35,                                   !- Value Until Time 4
  24:00,                                  !- Time 5 {hh:mm}
  0.3;                                    !- Value Until Time 5

Schedule:Day:Interval,
  Cooling Sch Default,                    !- Name
  Temperature 3,                          !- Schedule Type Limits Name
  No,                                     !- Interpolate to Timestep
  24:00,                                  !- Time 1 {hh:mm}
  28;                                     !- Value Until Time 1

Schedule:Day:Interval,
  Medium Office_Bldg_Equip Winter Design Day, !- Name
  Fraction,                               !- Schedule Type Limits Name
  No,                                     !- Interpolate to Timestep
  24:00,                                  !- Time 1 {hh:mm}
  0;                                      !- Value Until Time 1

Schedule:Day:Interval,
  Medium Office_Bldg_Light Winter Design Day, !- Name
  Fraction,                               !- Schedule Type Limits Name
  No,                                     !- Interpolate to Timestep
  24:00,                                  !- Time 1 {hh:mm}
  0;                                      !- Value Until Time 1

Schedule:Day:Interval,
  Heating Sch Default,                    !- Name
  Temperature 2,                          !- Schedule Type Limits Name
  No,                                     !- Interpolate to Timestep
  24:00,                                  !- Time 1 {hh:mm}
  24;                                     !- Value Until Time 1

Schedule:Day:Interval,
  Medium Office_Infil_Quarter_On Winter Design Day, !- Name
  Fraction,                               !- Schedule Type Limits Name
  No,                                     !- Interpolate to Timestep
  06:00,                                  !- Time 1 {hh:mm}
  1,                                      !- Value Until Time 1
  18:00,                                  !- Time 2 {hh:mm}
  0.25,                                   !- Value Until Time 2
  24:00,                                  !- Time 3 {hh:mm}
  1;                                      !- Value Until Time 3

Schedule:Day:Interval,
  Always_On_Summer_Design_Day,            !- Name
  OnOff,                                  !- Schedule Type Limits Name
  No,                                     !- Interpolate to Timestep
  24:00,                                  !- Time 1 {hh:mm}
  1;                                      !- Value Until Time 1

Schedule:Day:Interval,
  Medium Office_Bldg_Light Default Schedule, !- Name
  Fraction,                               !- Schedule Type Limits Name
  No,                                     !- Interpolate to Timestep
  05:00,                                  !- Time 1 {hh:mm}
  0.05,                                   !- Value Until Time 1
  07:00,                                  !- Time 2 {hh:mm}
  0.1,                                    !- Value Until Time 2
  08:00,                                  !- Time 3 {hh:mm}
  0.3,                                    !- Value Until Time 3
  17:00,                                  !- Time 4 {hh:mm}
  0.9,                                    !- Value Until Time 4
  18:00,                                  !- Time 5 {hh:mm}
  0.7,                                    !- Value Until Time 5
  20:00,                                  !- Time 6 {hh:mm}
  0.5,                                    !- Value Until Time 6
  22:00,                                  !- Time 7 {hh:mm}
  0.3,                                    !- Value Until Time 7
  23:00,                                  !- Time 8 {hh:mm}
  0.1,                                    !- Value Until Time 8
  24:00,                                  !- Time 9 {hh:mm}
  0.05;                                   !- Value Until Time 9

Schedule:Day:Interval,
  Chilled_Water_Temperature_Default,      !- Name
  ,                                       !- Schedule Type Limits Name
  No,                                     !- Interpolate to Timestep
  24:00,                                  !- Time 1 {hh:mm}
  6.7;                                    !- Value Until Time 1

Schedule:Day:Interval,
  Medium Office_Infil_Quarter_On Default Schedule, !- Name
  Fraction,                               !- Schedule Type Limits Name
  No,                                     !- Interpolate to Timestep
  06:00,                                  !- Time 1 {hh:mm}
  1,                                      !- Value Until Time 1
  22:00,                                  !- Time 2 {hh:mm}
  0.25,                                   !- Value Until Time 2
  24:00,                                  !- Time 3 {hh:mm}
  1;                                      !- Value Until Time 3

Schedule:Day:Interval,
  Deck_Temperature_Summer_Design_Day,     !- Name
  Temperature,                            !- Schedule Type Limits Name
  No,                                     !- Interpolate to Timestep
  24:00,                                  !- Time 1 {hh:mm}
  12.8;                                   !- Value Until Time 1

Schedule:Day:Interval,
  Hot_Water_Temperature_Summer_Design_Day, !- Name
  Temperature 1,                          !- Schedule Type Limits Name
  No,                                     !- Interpolate to Timestep
  24:00,                                  !- Time 1 {hh:mm}
  67;                                     !- Value Until Time 1

Schedule:Day:Interval,
  Medium Office_Bldg_Occ Summer Design Day, !- Name
  Fraction,                               !- Schedule Type Limits Name
  No,                                     !- Interpolate to Timestep
  06:00,                                  !- Time 1 {hh:mm}
  0,                                      !- Value Until Time 1
  22:00,                                  !- Time 2 {hh:mm}
  1,                                      !- Value Until Time 2
  24:00,                                  !- Time 3 {hh:mm}
  0.05;                                   !- Value Until Time 3

Schedule:Day:Interval,
  Chilled_Water_Temperature_Summer_Design_Day, !- Name
  ,                                       !- Schedule Type Limits Name
  No,                                     !- Interpolate to Timestep
  24:00,                                  !- Time 1 {hh:mm}
  6.7;                                    !- Value Until Time 1

Schedule:Day:Interval,
  Medium Office_Bldg_Light Rule 2 Day Schedule, !- Name
  Fraction,                               !- Schedule Type Limits Name
  No,                                     !- Interpolate to Timestep
  06:00,                                  !- Time 1 {hh:mm}
  0.05,                                   !- Value Until Time 1
  08:00,                                  !- Time 2 {hh:mm}
  0.1,                                    !- Value Until Time 2
  14:00,                                  !- Time 3 {hh:mm}
  0.5,                                    !- Value Until Time 3
  17:00,                                  !- Time 4 {hh:mm}
  0.15,                                   !- Value Until Time 4
  24:00,                                  !- Time 5 {hh:mm}
  0.05;                                   !- Value Until Time 5

Schedule:Day:Interval,
  Medium Office_Bldg_Light Summer Design Day, !- Name
  Fraction,                               !- Schedule Type Limits Name
  No,                                     !- Interpolate to Timestep
  24:00,                                  !- Time 1 {hh:mm}
  1;                                      !- Value Until Time 1

Schedule:Day:Interval,
  Medium Office_Bldg_Occ Rule 1 Day Schedule, !- Name
  Fraction,                               !- Schedule Type Limits Name
  No,                                     !- Interpolate to Timestep
  24:00,                                  !- Time 1 {hh:mm}
  0;                                      !- Value Until Time 1

Schedule:Day:Interval,
  Medium Office_Bldg_Equip Default Schedule, !- Name
  Fraction,                               !- Schedule Type Limits Name
  No,                                     !- Interpolate to Timestep
  08:00,                                  !- Time 1 {hh:mm}
  0.4,                                    !- Value Until Time 1
  12:00,                                  !- Time 2 {hh:mm}
  0.9,                                    !- Value Until Time 2
  13:00,                                  !- Time 3 {hh:mm}
  0.8,                                    !- Value Until Time 3
  17:00,                                  !- Time 4 {hh:mm}
  0.9,                                    !- Value Until Time 4
  18:00,                                  !- Time 5 {hh:mm}
  0.8,                                    !- Value Until Time 5
  20:00,                                  !- Time 6 {hh:mm}
  0.6,                                    !- Value Until Time 6
  22:00,                                  !- Time 7 {hh:mm}
  0.5,                                    !- Value Until Time 7
  24:00,                                  !- Time 8 {hh:mm}
  0.4;                                    !- Value Until Time 8

Schedule:Day:Interval,
  Medium Office_Activity Summer Design Day, !- Name
  ActivityLevel 13,                       !- Schedule Type Limits Name
  No,                                     !- Interpolate to Timestep
  24:00,                                  !- Time 1 {hh:mm}
  120;                                    !- Value Until Time 1

Schedule:Day:Interval,
  Deck_Temperature_Default,               !- Name
  Temperature,                            !- Schedule Type Limits Name
  No,                                     !- Interpolate to Timestep
  24:00,                                  !- Time 1 {hh:mm}
  12.8;                                   !- Value Until Time 1

Schedule:Day:Interval,
  Medium Office_Activity Default Schedule, !- Name
  ActivityLevel 13,                       !- Schedule Type Limits Name
  No,                                     !- Interpolate to Timestep
  24:00,                                  !- Time 1 {hh:mm}
  120;                                    !- Value Until Time 1

Schedule:Day:Interval,
  Medium Office_Bldg_Occ Rule 2 Day Schedule, !- Name
  Fraction,                               !- Schedule Type Limits Name
  No,                                     !- Interpolate to Timestep
  06:00,                                  !- Time 1 {hh:mm}
  0,                                      !- Value Until Time 1
  08:00,                                  !- Time 2 {hh:mm}
  0.1,                                    !- Value Until Time 2
  14:00,                                  !- Time 3 {hh:mm}
  0.5,                                    !- Value Until Time 3
  17:00,                                  !- Time 4 {hh:mm}
  0.1,                                    !- Value Until Time 4
  24:00,                                  !- Time 5 {hh:mm}
  0;                                      !- Value Until Time 5

Schedule:Day:Interval,
  Medium Office_Infil_Quarter_On Rule 2 Day Schedule, !- Name
  Fraction,                               !- Schedule Type Limits Name
  No,                                     !- Interpolate to Timestep
  06:00,                                  !- Time 1 {hh:mm}
  1,                                      !- Value Until Time 1
  18:00,                                  !- Time 2 {hh:mm}
  0.25,                                   !- Value Until Time 2
  24:00,                                  !- Time 3 {hh:mm}
  1;                                      !- Value Until Time 3

Schedule:Day:Interval,
  Medium Office_Bldg_Occ Default Schedule, !- Name
  Fraction,                               !- Schedule Type Limits Name
  No,                                     !- Interpolate to Timestep
  06:00,                                  !- Time 1 {hh:mm}
  0,                                      !- Value Until Time 1
  07:00,                                  !- Time 2 {hh:mm}
  0.1,                                    !- Value Until Time 2
  08:00,                                  !- Time 3 {hh:mm}
  0.2,                                    !- Value Until Time 3
  12:00,                                  !- Time 4 {hh:mm}
  0.95,                                   !- Value Until Time 4
  13:00,                                  !- Time 5 {hh:mm}
  0.5,                                    !- Value Until Time 5
  17:00,                                  !- Time 6 {hh:mm}
  0.95,                                   !- Value Until Time 6
  18:00,                                  !- Time 7 {hh:mm}
  0.7,                                    !- Value Until Time 7
  20:00,                                  !- Time 8 {hh:mm}
  0.4,                                    !- Value Until Time 8
  22:00,                                  !- Time 9 {hh:mm}
  0.1,                                    !- Value Until Time 9
  24:00,                                  !- Time 10 {hh:mm}
  0.05;                                   !- Value Until Time 10

Schedule:Day:Interval,
  Medium Office_Bldg_Light Rule 1 Day Schedule, !- Name
  Fraction,                               !- Schedule Type Limits Name
  No,                                     !- Interpolate to Timestep
  24:00,                                  !- Time 1 {hh:mm}
  0.05;                                   !- Value Until Time 1

Schedule:Day:Interval,
  Deck_Temperature_Winter_Design_Day,     !- Name
  Temperature,                            !- Schedule Type Limits Name
  No,                                     !- Interpolate to Timestep
  24:00,                                  !- Time 1 {hh:mm}
  12.8;                                   !- Value Until Time 1

Schedule:Day:Interval,
  Hot_Water_Temperature_Default,          !- Name
  Temperature 1,                          !- Schedule Type Limits Name
  No,                                     !- Interpolate to Timestep
  24:00,                                  !- Time 1 {hh:mm}
  67;                                     !- Value Until Time 1

Schedule:Day:Interval,
  Medium Office_Infil_Quarter_On Rule 1 Day Schedule, !- Name
  Fraction,                               !- Schedule Type Limits Name
  No,                                     !- Interpolate to Timestep
  24:00,                                  !- Time 1 {hh:mm}
  1;                                      !- Value Until Time 1

Schedule:Day:Interval,
  Medium Office_Bldg_Equip Rule 1 Day Schedule, !- Name
  Fraction,                               !- Schedule Type Limits Name
  No,                                     !- Interpolate to Timestep
  24:00,                                  !- Time 1 {hh:mm}
  0.3;                                    !- Value Until Time 1

Schedule:Week:Daily,
  Schedule:Week:Daily {748ba047-4fe0-4215-8acd-3dce9fa30f99}, !- Name
  Always_On_Default,                      !- Sunday Schedule:Day Name
  Always_On_Default,                      !- Monday Schedule:Day Name
  Always_On_Default,                      !- Tuesday Schedule:Day Name
  Always_On_Default,                      !- Wednesday Schedule:Day Name
  Always_On_Default,                      !- Thursday Schedule:Day Name
  Always_On_Default,                      !- Friday Schedule:Day Name
  Always_On_Default,                      !- Saturday Schedule:Day Name
  Always_On_Default,                      !- Holiday Schedule:Day Name
  Always_On_Summer_Design_Day,            !- SummerDesignDay Schedule:Day Name
  Always_On_Winter_Design_Day,            !- WinterDesignDay Schedule:Day Name
  Always_On_Default,                      !- CustomDay1 Schedule:Day Name
  Always_On_Default;                      !- CustomDay2 Schedule:Day Name

Schedule:Year,
  Always_On,                              !- Name
  OnOff,                                  !- Schedule Type Limits Name
  Schedule:Week:Daily {748ba047-4fe0-4215-8acd-3dce9fa30f99}, !- Schedule:Week Name 1
  1,                                      !- Start Month 1
  1,                                      !- Start Day 1
  12,                                     !- End Month 1
  31;                                     !- End Day 1

Schedule:Week:Daily,
  Schedule:Week:Daily {9330f4a8-d987-4423-bd53-a1d0bacbc616}, !- Name
  Hot_Water_Temperature_Default,          !- Sunday Schedule:Day Name
  Hot_Water_Temperature_Default,          !- Monday Schedule:Day Name
  Hot_Water_Temperature_Default,          !- Tuesday Schedule:Day Name
  Hot_Water_Temperature_Default,          !- Wednesday Schedule:Day Name
  Hot_Water_Temperature_Default,          !- Thursday Schedule:Day Name
  Hot_Water_Temperature_Default,          !- Friday Schedule:Day Name
  Hot_Water_Temperature_Default,          !- Saturday Schedule:Day Name
  Hot_Water_Temperature_Default,          !- Holiday Schedule:Day Name
  Hot_Water_Temperature_Summer_Design_Day, !- SummerDesignDay Schedule:Day Name
  Hot_Water_Temperature_Winter_Design_Day, !- WinterDesignDay Schedule:Day Name
  Hot_Water_Temperature_Default,          !- CustomDay1 Schedule:Day Name
  Hot_Water_Temperature_Default;          !- CustomDay2 Schedule:Day Name

Schedule:Year,
  Hot_Water_Temperature,                  !- Name
  Temperature 1,                          !- Schedule Type Limits Name
  Schedule:Week:Daily {9330f4a8-d987-4423-bd53-a1d0bacbc616}, !- Schedule:Week Name 1
  1,                                      !- Start Month 1
  1,                                      !- Start Day 1
  12,                                     !- End Month 1
  31;                                     !- End Day 1

Schedule:Week:Daily,
  Schedule:Week:Daily {512f08aa-b13a-4912-8844-a8f2a4c0bf07}, !- Name
  Medium Office_Infil_Quarter_On Default Schedule, !- Sunday Schedule:Day Name
  Medium Office_Infil_Quarter_On Default Schedule, !- Monday Schedule:Day Name
  Medium Office_Infil_Quarter_On Default Schedule, !- Tuesday Schedule:Day Name
  Medium Office_Infil_Quarter_On Default Schedule, !- Wednesday Schedule:Day Name
  Medium Office_Infil_Quarter_On Default Schedule, !- Thursday Schedule:Day Name
  Medium Office_Infil_Quarter_On Default Schedule, !- Friday Schedule:Day Name
  Medium Office_Infil_Quarter_On Rule 2 Day Schedule, !- Saturday Schedule:Day Name
  Medium Office_Infil_Quarter_On Default Schedule, !- Holiday Schedule:Day Name
  Medium Office_Infil_Quarter_On Summer Design Day, !- SummerDesignDay Schedule:Day Name
  Medium Office_Infil_Quarter_On Winter Design Day, !- WinterDesignDay Schedule:Day Name
  Medium Office_Infil_Quarter_On Default Schedule, !- CustomDay1 Schedule:Day Name
  Medium Office_Infil_Quarter_On Default Schedule; !- CustomDay2 Schedule:Day Name

Schedule:Week:Daily,
  Schedule:Week:Daily {c564ef56-c102-4af7-b0ef-534abebf1a91}, !- Name
  Medium Office_Infil_Quarter_On Rule 1 Day Schedule, !- Sunday Schedule:Day Name
  Medium Office_Infil_Quarter_On Default Schedule, !- Monday Schedule:Day Name
  Medium Office_Infil_Quarter_On Default Schedule, !- Tuesday Schedule:Day Name
  Medium Office_Infil_Quarter_On Default Schedule, !- Wednesday Schedule:Day Name
  Medium Office_Infil_Quarter_On Default Schedule, !- Thursday Schedule:Day Name
  Medium Office_Infil_Quarter_On Default Schedule, !- Friday Schedule:Day Name
  Medium Office_Infil_Quarter_On Rule 2 Day Schedule, !- Saturday Schedule:Day Name
  Medium Office_Infil_Quarter_On Default Schedule, !- Holiday Schedule:Day Name
  Medium Office_Infil_Quarter_On Summer Design Day, !- SummerDesignDay Schedule:Day Name
  Medium Office_Infil_Quarter_On Winter Design Day, !- WinterDesignDay Schedule:Day Name
  Medium Office_Infil_Quarter_On Default Schedule, !- CustomDay1 Schedule:Day Name
  Medium Office_Infil_Quarter_On Default Schedule; !- CustomDay2 Schedule:Day Name

Schedule:Year,
  Medium Office_Infil_Quarter_On,         !- Name
  Fraction,                               !- Schedule Type Limits Name
  Schedule:Week:Daily {512f08aa-b13a-4912-8844-a8f2a4c0bf07}, !- Schedule:Week Name 1
  1,                                      !- Start Month 1
  1,                                      !- Start Day 1
  1,                                      !- End Month 1
  3,                                      !- End Day 1
  Schedule:Week:Daily {c564ef56-c102-4af7-b0ef-534abebf1a91}, !- Schedule:Week Name 2
  1,                                      !- Start Month 2
  4,                                      !- Start Day 2
  12,                                     !- End Month 2
  31;                                     !- End Day 2

Schedule:Week:Daily,
  Schedule:Week:Daily {8ed94299-814e-4f10-98e9-da8da8b11086}, !- Name
  Medium Office_Bldg_Light Default Schedule, !- Sunday Schedule:Day Name
  Medium Office_Bldg_Light Default Schedule, !- Monday Schedule:Day Name
  Medium Office_Bldg_Light Default Schedule, !- Tuesday Schedule:Day Name
  Medium Office_Bldg_Light Default Schedule, !- Wednesday Schedule:Day Name
  Medium Office_Bldg_Light Default Schedule, !- Thursday Schedule:Day Name
  Medium Office_Bldg_Light Default Schedule, !- Friday Schedule:Day Name
  Medium Office_Bldg_Light Rule 2 Day Schedule, !- Saturday Schedule:Day Name
  Medium Office_Bldg_Light Default Schedule, !- Holiday Schedule:Day Name
  Medium Office_Bldg_Light Summer Design Day, !- SummerDesignDay Schedule:Day Name
  Medium Office_Bldg_Light Winter Design Day, !- WinterDesignDay Schedule:Day Name
  Medium Office_Bldg_Light Default Schedule, !- CustomDay1 Schedule:Day Name
  Medium Office_Bldg_Light Default Schedule; !- CustomDay2 Schedule:Day Name

Schedule:Week:Daily,
  Schedule:Week:Daily {9c676508-440f-47bf-8466-d6dcc1850995}, !- Name
  Medium Office_Bldg_Light Rule 1 Day Schedule, !- Sunday Schedule:Day Name
  Medium Office_Bldg_Light Default Schedule, !- Monday Schedule:Day Name
  Medium Office_Bldg_Light Default Schedule, !- Tuesday Schedule:Day Name
  Medium Office_Bldg_Light Default Schedule, !- Wednesday Schedule:Day Name
  Medium Office_Bldg_Light Default Schedule, !- Thursday Schedule:Day Name
  Medium Office_Bldg_Light Default Schedule, !- Friday Schedule:Day Name