
OS:Version,
  {70d4092b-ab54-474d-948c-dd928bc59ec9}, !- Handle
  0.10.0;                                 !- Version Identifier

OS:BuildingStory,
  {93fadbcd-85dc-452c-aadd-8f46b3d42fe3}, !- Handle
  Story 1,                                !- Name
  0,                                      !- Nominal Z Coordinate {m}
  4,                                      !- Nominal Floor to Floor Height {m}
  ,                                       !- Default Construction Set Name
  ,                                       !- Default Schedule Set Name
  ;                                       !- Group Rendering Name

OS:Space,
  {9e9712da-4f74-4301-ac07-1e753ed3902b}, !- Handle
  Story 1 West Perimeter Space,           !- Name
  ,                                       !- Space Type Name
  ,                                       !- Default Construction Set Name
  ,                                       !- Default Schedule Set Name
  -0,                                     !- Direction of Relative North {deg}
  0,                                      !- X Origin {m}
  0,                                      !- Y Origin {m}
  0,                                      !- Z Origin {m}
  {93fadbcd-85dc-452c-aadd-8f46b3d42fe3}, !- Building Story Name
  {6d0ec363-ab4a-4316-9341-e002d5227ee9}; !- Thermal Zone Name

OS:Surface,
  {943f36a2-e6e6-4a99-8f1b-1a4cc2b5b91a}, !- Handle
  Surface 1,                              !- Name
  Floor,                                  !- Surface Type
  ,                                       !- Construction Name
  {9e9712da-4f74-4301-ac07-1e753ed3902b}, !- Space Name
  Ground,                                 !- Outside Boundary Condition
  ,                                       !- Outside Boundary Condition Object
  NoSun,                                  !- Sun Exposure
  NoWind,                                 !- Wind Exposure
  ,                                       !- View Factor to Ground
  ,                                       !- Number of Vertices
  0, 0, 0,                                !- X,Y,Z Vertex 1 {m}
  0, 10, 0,                               !- X,Y,Z Vertex 2 {m}
  3, 7, 0,                                !- X,Y,Z Vertex 3 {m}
  3, 3, 0;                                !- X,Y,Z Vertex 4 {m}

OS:Surface,
  {f14c3ef9-43d7-4622-90de-219285edd261}, !- Handle
  Surface 2,                              !- Name
  Wall,                                   !- Surface Type
  ,                                       !- Construction Name
  {9e9712da-4f74-4301-ac07-1e753ed3902b}, !- Space Name
  Outdoors,                               !- Outside Boundary Condition
  ,                                       !- Outside Boundary Condition Object
  SunExposed,                             !- Sun Exposure
  WindExposed,                            !- Wind Exposure
  ,                                       !- View Factor to Ground
  ,                                       !- Number of Vertices
  0, 10, 4,                               !- X,Y,Z Vertex 1 {m}
  0, 10, 0,                               !- X,Y,Z Vertex 2 {m}
  0, 0, 0,                                !- X,Y,Z Vertex 3 {m}
  0, 0, 4;                                !- X,Y,Z Vertex 4 {m}

OS:Surface,
  {e535b10e-51ca-456b-8782-6dc2340dbf5a}, !- Handle
  Surface 3,                              !- Name
  Wall,                                   !- Surface Type
  ,                                       !- Construction Name
  {9e9712da-4f74-4301-ac07-1e753ed3902b}, !- Space Name
  Surface,                                !- Outside Boundary Condition
  {f41ca4c8-d411-4a07-9be7-166418e631e9}, !- Outside Boundary Condition Object
  NoSun,                                  !- Sun Exposure
  NoWind,                                 !- Wind Exposure
  ,                                       !- View Factor to Ground
  ,                                       !- Number of Vertices
  3, 7, 4,                                !- X,Y,Z Vertex 1 {m}
  3, 7, 0,                                !- X,Y,Z Vertex 2 {m}
  0, 10, 0,                               !- X,Y,Z Vertex 3 {m}
  0, 10, 4;                               !- X,Y,Z Vertex 4 {m}

OS:Surface,
  {f33362de-7a3a-441b-a94f-5d8ba238b05a}, !- Handle
  Surface 4,                              !- Name
  Wall,                                   !- Surface Type
  ,                                       !- Construction Name
  {9e9712da-4f74-4301-ac07-1e753ed3902b}, !- Space Name
  Surface,                                !- Outside Boundary Condition
  {9ed1059b-ec20-488e-b404-22db9da06c3a}, !- Outside Boundary Condition Object
  NoSun,                                  !- Sun Exposure
  NoWind,                                 !- Wind Exposure
  ,                                       !- View Factor to Ground
  ,                                       !- Number of Vertices
  3, 3, 4,                                !- X,Y,Z Vertex 1 {m}
  3, 3, 0,                                !- X,Y,Z Vertex 2 {m}
  3, 7, 0,                                !- X,Y,Z Vertex 3 {m}
  3, 7, 4;                                !- X,Y,Z Vertex 4 {m}

OS:Surface,
  {8c12a0d6-8076-46ef-91e8-459b49214ca7}, !- Handle
  Surface 5,                              !- Name
  Wall,                                   !- Surface Type
  ,                                       !- Construction Name
  {9e9712da-4f74-4301-ac07-1e753ed3902b}, !- Space Name
  Surface,                                !- Outside Boundary Condition
  {1346a685-724b-4b28-9074-977760056334}, !- Outside Boundary Condition Object
  NoSun,                                  !- Sun Exposure
  NoWind,                                 !- Wind Exposure
  ,                                       !- View Factor to Ground
  ,                                       !- Number of Vertices
  0, 0, 4,                                !- X,Y,Z Vertex 1 {m}
  0, 0, 0,                                !- X,Y,Z Vertex 2 {m}
  3, 3, 0,                                !- X,Y,Z Vertex 3 {m}
  3, 3, 4;                                !- X,Y,Z Vertex 4 {m}

OS:Surface,
  {fb64f5ca-cc09-48f1-8249-5aa6727a29b5}, !- Handle
  Surface 6,                              !- Name
  RoofCeiling,                            !- Surface Type
  ,                                       !- Construction Name
  {9e9712da-4f74-4301-ac07-1e753ed3902b}, !- Space Name
  Surface,                                !- Outside Boundary Condition
  {05be29dc-f531-4b89-9c8b-082ef8351214}, !- Outside Boundary Condition Object
  NoSun,                                  !- Sun Exposure
  NoWind,                                 !- Wind Exposure
  ,                                       !- View Factor to Ground
  ,                                       !- Number of Vertices
  3, 3, 4,                                !- X,Y,Z Vertex 1 {m}
  3, 7, 4,                                !- X,Y,Z Vertex 2 {m}
  0, 10, 4,                               !- X,Y,Z Vertex 3 {m}
  0, 0, 4;                                !- X,Y,Z Vertex 4 {m}

OS:Space,
  {a3818740-e755-49b8-ac34-62ecdbe8d026}, !- Handle
  Story 1 North Perimeter Space,          !- Name
  ,                                       !- Space Type Name
  ,                                       !- Default Construction Set Name
  ,                                       !- Default Schedule Set Name
  -0,                                     !- Direction of Relative North {deg}
  3,                                      !- X Origin {m}
  7,                                      !- Y Origin {m}
  0,                                      !- Z Origin {m}
  {93fadbcd-85dc-452c-aadd-8f46b3d42fe3}, !- Building Story Name
  {189aaddb-c319-46dd-a801-10655a783ee8}; !- Thermal Zone Name

OS:Surface,
  {fe76d01e-0ac9-44dc-8995-dbec448bae95}, !- Handle
  Surface 7,                              !- Name
  Floor,                                  !- Surface Type
  ,                                       !- Construction Name
  {a3818740-e755-49b8-ac34-62ecdbe8d026}, !- Space Name
  Ground,                                 !- Outside Boundary Condition
  ,                                       !- Outside Boundary Condition Object
  NoSun,                                  !- Sun Exposure
  NoWind,                                 !- Wind Exposure
  ,                                       !- View Factor to Ground
  ,                                       !- Number of Vertices
  -3, 3, 0,                               !- X,Y,Z Vertex 1 {m}
  7, 3, 0,                                !- X,Y,Z Vertex 2 {m}
  4, 0, 0,                                !- X,Y,Z Vertex 3 {m}
  0, 0, 0;                                !- X,Y,Z Vertex 4 {m}

OS:Surface,
  {cd6ebcbd-fbb5-42ba-9a3b-1ea9bf2921c9}, !- Handle
  Surface 8,                              !- Name
  Wall,                                   !- Surface Type
  ,                                       !- Construction Name
  {a3818740-e755-49b8-ac34-62ecdbe8d026}, !- Space Name
  Outdoors,                               !- Outside Boundary Condition
  ,                                       !- Outside Boundary Condition Object
  SunExposed,                             !- Sun Exposure
  WindExposed,                            !- Wind Exposure
  ,                                       !- View Factor to Ground
  ,                                       !- Number of Vertices
  7, 3, 4,                                !- X,Y,Z Vertex 1 {m}
  7, 3, 0,                                !- X,Y,Z Vertex 2 {m}
  -3, 3, 0,                               !- X,Y,Z Vertex 3 {m}
  -3, 3, 4;                               !- X,Y,Z Vertex 4 {m}

OS:Surface,
  {1eea13a0-0465-47d9-aa3b-7fff4a6a9289}, !- Handle
  Surface 9,                              !- Name
  Wall,                                   !- Surface Type
  ,                                       !- Construction Name
  {a3818740-e755-49b8-ac34-62ecdbe8d026}, !- Space Name
  Surface,                                !- Outside Boundary Condition
  {d2cb4ca9-c216-4d01-9bbf-3c43e028095b}, !- Outside Boundary Condition Object
  NoSun,                                  !- Sun Exposure
  NoWind,                                 !- Wind Exposure
  ,                                       !- View Factor to Ground
  ,                                       !- Number of Vertices
  4, 0, 4,                                !- X,Y,Z Vertex 1 {m}
  4, 0, 0,                                !- X,Y,Z Vertex 2 {m}
  7, 3, 0,                                !- X,Y,Z Vertex 3 {m}
  7, 3, 4;                                !- X,Y,Z Vertex 4 {m}

OS:Surface,
  {ab265620-26bb-44dd-a7db-e9d8bbfaeb81}, !- Handle
  Surface 10,                             !- Name
  Wall,                                   !- Surface Type
  ,                                       !- Construction Name
  {a3818740-e755-49b8-ac34-62ecdbe8d026}, !- Space Name
  Surface,                                !- Outside Boundary Condition
  {ea663e78-231f-4456-9cd7-d6d6e2ebf778}, !- Outside Boundary Condition Object
  NoSun,                                  !- Sun Exposure
  NoWind,                                 !- Wind Exposure
  ,                                       !- View Factor to Ground
  ,                                       !- Number of Vertices
  0, 0, 4,                                !- X,Y,Z Vertex 1 {m}
  0, 0, 0,                                !- X,Y,Z Vertex 2 {m}
  4, 0, 0,                                !- X,Y,Z Vertex 3 {m}
  4, 0, 4;                                !- X,Y,Z Vertex 4 {m}

OS:Surface,
  {f41ca4c8-d411-4a07-9be7-166418e631e9}, !- Handle
  Surface 11,                             !- Name
  Wall,                                   !- Surface Type
  ,                                       !- Construction Name
  {a3818740-e755-49b8-ac34-62ecdbe8d026}, !- Space Name
  Surface,                                !- Outside Boundary Condition
  {e535b10e-51ca-456b-8782-6dc2340dbf5a}, !- Outside Boundary Condition Object
  NoSun,                                  !- Sun Exposure
  NoWind,                                 !- Wind Exposure
  ,                                       !- View Factor to Ground
  ,                                       !- Number of Vertices
  -3, 3, 4,                               !- X,Y,Z Vertex 1 {m}
  -3, 3, 0,                               !- X,Y,Z Vertex 2 {m}
  0, 0, 0,                                !- X,Y,Z Vertex 3 {m}
  0, 0, 4;                                !- X,Y,Z Vertex 4 {m}

OS:Surface,
  {f6cc5865-f062-492b-91aa-947a2e8c0aeb}, !- Handle
  Surface 12,                             !- Name
  RoofCeiling,                            !- Surface Type
  ,                                       !- Construction Name
  {a3818740-e755-49b8-ac34-62ecdbe8d026}, !- Space Name
  Surface,                                !- Outside Boundary Condition
  {a20ac358-8526-482a-ab66-30966379b488}, !- Outside Boundary Condition Object
  NoSun,                                  !- Sun Exposure
  NoWind,                                 !- Wind Exposure
  ,                                       !- View Factor to Ground
  ,                                       !- Number of Vertices
  0, 0, 4,                                !- X,Y,Z Vertex 1 {m}
  4, 0, 4,                                !- X,Y,Z Vertex 2 {m}
  7, 3, 4,                                !- X,Y,Z Vertex 3 {m}
  -3, 3, 4;                               !- X,Y,Z Vertex 4 {m}

OS:Space,
  {0371e636-262a-4f63-acfc-3b41304d4415}, !- Handle
  Story 1 East Perimeter Space,           !- Name
  ,                                       !- Space Type Name
  ,                                       !- Default Construction Set Name
  ,                                       !- Default Schedule Set Name
  -0,                                     !- Direction of Relative North {deg}
  7,                                      !- X Origin {m}
  3,                                      !- Y Origin {m}
  0,                                      !- Z Origin {m}
  {93fadbcd-85dc-452c-aadd-8f46b3d42fe3}, !- Building Story Name
  {874cbf28-90cf-4cee-836c-7b2f0fbd8784}; !- Thermal Zone Name

OS:Surface,
  {1ad2d297-ffe8-4bd0-90b7-f0bda24ef95c}, !- Handle
  Surface 13,                             !- Name
  Floor,                                  !- Surface Type
  ,                                       !- Construction Name
  {0371e636-262a-4f63-acfc-3b41304d4415}, !- Space Name
  Ground,                                 !- Outside Boundary Condition
  ,                                       !- Outside Boundary Condition Object
  NoSun,                                  !- Sun Exposure
  NoWind,                                 !- Wind Exposure
  ,                                       !- View Factor to Ground
  ,                                       !- Number of Vertices
  3, 7, 0,                                !- X,Y,Z Vertex 1 {m}
  3, -3, 0,                               !- X,Y,Z Vertex 2 {m}
  0, 0, 0,                                !- X,Y,Z Vertex 3 {m}
  0, 4, 0;                                !- X,Y,Z Vertex 4 {m}

OS:Surface,
  {e91fb0b1-88dd-495c-8d76-1f1b8aa2a61a}, !- Handle
  Surface 14,                             !- Name
  Wall,                                   !- Surface Type
  ,                                       !- Construction Name
  {0371e636-262a-4f63-acfc-3b41304d4415}, !- Space Name
  Outdoors,                               !- Outside Boundary Condition
  ,                                       !- Outside Boundary Condition Object
  SunExposed,                             !- Sun Exposure
  WindExposed,                            !- Wind Exposure
  ,                                       !- View Factor to Ground
  ,                                       !- Number of Vertices
  3, -3, 4,                               !- X,Y,Z Vertex 1 {m}
  3, -3, 0,                               !- X,Y,Z Vertex 2 {m}
  3, 7, 0,                                !- X,Y,Z Vertex 3 {m}
  3, 7, 4;                                !- X,Y,Z Vertex 4 {m}

OS:Surface,
  {f8fbb14b-df78-4569-bb10-8ecd21ffae42}, !- Handle
  Surface 15,                             !- Name
  Wall,                                   !- Surface Type
  ,                                       !- Construction Name
  {0371e636-262a-4f63-acfc-3b41304d4415}, !- Space Name
  Surface,                                !- Outside Boundary Condition
  {c5fefb23-e3f1-4bec-8835-dffe2dde4bed}, !- Outside Boundary Condition Object
  NoSun,                                  !- Sun Exposure
  NoWind,                                 !- Wind Exposure
  ,                                       !- View Factor to Ground
  ,                                       !- Number of Vertices
  0, 0, 4,                                !- X,Y,Z Vertex 1 {m}
  0, 0, 0,                                !- X,Y,Z Vertex 2 {m}
  3, -3, 0,                               !- X,Y,Z Vertex 3 {m}
  3, -3, 4;                               !- X,Y,Z Vertex 4 {m}

OS:Surface,
  {0abcc8ae-eafa-4b9d-8f33-d2d9d13b3c81}, !- Handle
  Surface 16,                             !- Name
  Wall,                                   !- Surface Type
  ,                                       !- Construction Name
  {0371e636-262a-4f63-acfc-3b41304d4415}, !- Space Name
  Surface,                                !- Outside Boundary Condition
  {c14a5026-14c4-4af4-89a6-02ec915396b8}, !- Outside Boundary Condition Object
  NoSun,                                  !- Sun Exposure
  NoWind,                                 !- Wind Exposure
  ,                                       !- View Factor to Ground
  ,                                       !- Number of Vertices
  0, 4, 4,                                !- X,Y,Z Vertex 1 {m}
  0, 4, 0,                                !- X,Y,Z Vertex 2 {m}
  0, 0, 0,                                !- X,Y,Z Vertex 3 {m}
  0, 0, 4;                                !- X,Y,Z Vertex 4 {m}

OS:Surface,
  {d2cb4ca9-c216-4d01-9bbf-3c43e028095b}, !- Handle
  Surface 17,                             !- Name
  Wall,                                   !- Surface Type
  ,                                       !- Construction Name
  {0371e636-262a-4f63-acfc-3b41304d4415}, !- Space Name
  Surface,                                !- Outside Boundary Condition
  {1eea13a0-0465-47d9-aa3b-7fff4a6a9289}, !- Outside Boundary Condition Object
  NoSun,                                  !- Sun Exposure
  NoWind,                                 !- Wind Exposure
  ,                                       !- View Factor to Ground
  ,                                       !- Number of Vertices
  3, 7, 4,                                !- X,Y,Z Vertex 1 {m}
  3, 7, 0,                                !- X,Y,Z Vertex 2 {m}
  0, 4, 0,                                !- X,Y,Z Vertex 3 {m}
  0, 4, 4;                                !- X,Y,Z Vertex 4 {m}

OS:Surface,
  {11eb5364-0598-46c9-9c34-1cae24039fa9}, !- Handle
  Surface 18,                             !- Name
  RoofCeiling,                            !- Surface Type
  ,                                       !- Construction Name
  {0371e636-262a-4f63-acfc-3b41304d4415}, !- Space Name
  Surface,                                !- Outside Boundary Condition
  {826295f7-4e5d-4d71-ad75-85aeffbb924a}, !- Outside Boundary Condition Object
  NoSun,                                  !- Sun Exposure
  NoWind,                                 !- Wind Exposure
  ,                                       !- View Factor to Ground
  ,                                       !- Number of Vertices
  0, 4, 4,                                !- X,Y,Z Vertex 1 {m}
  0, 0, 4,                                !- X,Y,Z Vertex 2 {m}
  3, -3, 4,                               !- X,Y,Z Vertex 3 {m}
  3, 7, 4;                                !- X,Y,Z Vertex 4 {m}

OS:Space,
  {cf26ad25-dc31-4bce-9b6e-d5daf7141b7f}, !- Handle
  Story 1 South Perimeter Space,          !- Name
  ,                                       !- Space Type Name
  ,                                       !- Default Construction Set Name
  ,                                       !- Default Schedule Set Name
  -0,                                     !- Direction of Relative North {deg}
  0,                                      !- X Origin {m}
  0,                                      !- Y Origin {m}
  0,                                      !- Z Origin {m}
  {93fadbcd-85dc-452c-aadd-8f46b3d42fe3}, !- Building Story Name
  {bb1b5594-610f-41ff-843e-0de183421b79}; !- Thermal Zone Name

OS:Surface,
  {36f651ef-0ab2-4732-a408-b2670378bb9c}, !- Handle
  Surface 19,                             !- Name
  Floor,                                  !- Surface Type
  ,                                       !- Construction Name
  {cf26ad25-dc31-4bce-9b6e-d5daf7141b7f}, !- Space Name
  Ground,                                 !- Outside Boundary Condition
  ,                                       !- Outside Boundary Condition Object
  NoSun,                                  !- Sun Exposure
  NoWind,                                 !- Wind Exposure
  ,                                       !- View Factor to Ground
  ,                                       !- Number of Vertices
  10, 0, 0,                               !- X,Y,Z Vertex 1 {m}
  0, 0, 0,                                !- X,Y,Z Vertex 2 {m}
  3, 3, 0,                                !- X,Y,Z Vertex 3 {m}
  7, 3, 0;                                !- X,Y,Z Vertex 4 {m}

OS:Surface,
  {fe4b8b1c-01cd-4851-9a58-fd09bdf1b20f}, !- Handle
  Surface 20,                             !- Name
  Wall,                                   !- Surface Type
  ,                                       !- Construction Name
  {cf26ad25-dc31-4bce-9b6e-d5daf7141b7f}, !- Space Name
  Outdoors,                               !- Outside Boundary Condition
  ,                                       !- Outside Boundary Condition Object
  SunExposed,                             !- Sun Exposure
  WindExposed,                            !- Wind Exposure
  ,                                       !- View Factor to Ground
  ,                                       !- Number of Vertices
  0, 0, 4,                                !- X,Y,Z Vertex 1 {m}
  0, 0, 0,                                !- X,Y,Z Vertex 2 {m}
  10, 0, 0,                               !- X,Y,Z Vertex 3 {m}
  10, 0, 4;                               !- X,Y,Z Vertex 4 {m}

OS:Surface,
  {1346a685-724b-4b28-9074-977760056334}, !- Handle
  Surface 21,                             !- Name
  Wall,                                   !- Surface Type
  ,                                       !- Construction Name
  {cf26ad25-dc31-4bce-9b6e-d5daf7141b7f}, !- Space Name
  Surface,                                !- Outside Boundary Condition
  {8c12a0d6-8076-46ef-91e8-459b49214ca7}, !- Outside Boundary Condition Object
  NoSun,                                  !- Sun Exposure
  NoWind,                                 !- Wind Exposure
  ,                                       !- View Factor to Ground
  ,                                       !- Number of Vertices
  3, 3, 4,                                !- X,Y,Z Vertex 1 {m}
  3, 3, 0,                                !- X,Y,Z Vertex 2 {m}
  0, 0, 0,                                !- X,Y,Z Vertex 3 {m}
  0, 0, 4;                                !- X,Y,Z Vertex 4 {m}

OS:Surface,
  {dc28e77d-dcdb-4d9a-acba-04e0c43940d0}, !- Handle
  Surface 22,                             !- Name
  Wall,                                   !- Surface Type
  ,                                       !- Construction Name
  {cf26ad25-dc31-4bce-9b6e-d5daf7141b7f}, !- Space Name
  Surface,                                !- Outside Boundary Condition
  {e37763fd-b3ad-4cb0-97c4-a3efb24b2547}, !- Outside Boundary Condition Object
  NoSun,                                  !- Sun Exposure
  NoWind,                                 !- Wind Exposure
  ,                                       !- View Factor to Ground
  ,                                       !- Number of Vertices
  7, 3, 4,                                !- X,Y,Z Vertex 1 {m}
  7, 3, 0,                                !- X,Y,Z Vertex 2 {m}
  3, 3, 0,                                !- X,Y,Z Vertex 3 {m}
  3, 3, 4;                                !- X,Y,Z Vertex 4 {m}

OS:Surface,
  {c5fefb23-e3f1-4bec-8835-dffe2dde4bed}, !- Handle
  Surface 23,                             !- Name
  Wall,                                   !- Surface Type
  ,                                       !- Construction Name
  {cf26ad25-dc31-4bce-9b6e-d5daf7141b7f}, !- Space Name
  Surface,                                !- Outside Boundary Condition
  {f8fbb14b-df78-4569-bb10-8ecd21ffae42}, !- Outside Boundary Condition Object
  NoSun,                                  !- Sun Exposure
  NoWind,                                 !- Wind Exposure
  ,                                       !- View Factor to Ground
  ,                                       !- Number of Vertices
  10, 0, 4,                               !- X,Y,Z Vertex 1 {m}
  10, 0, 0,                               !- X,Y,Z Vertex 2 {m}
  7, 3, 0,                                !- X,Y,Z Vertex 3 {m}
  7, 3, 4;                                !- X,Y,Z Vertex 4 {m}

OS:Surface,
  {f868a2de-8918-4a23-8580-1db681c722bf}, !- Handle
  Surface 24,                             !- Name
  RoofCeiling,                            !- Surface Type
  ,                                       !- Construction Name
  {cf26ad25-dc31-4bce-9b6e-d5daf7141b7f}, !- Space Name
  Surface,                                !- Outside Boundary Condition
  {023e65a4-fbf3-4739-9569-73c00ccaaef5}, !- Outside Boundary Condition Object
  NoSun,                                  !- Sun Exposure
  NoWind,                                 !- Wind Exposure
  ,                                       !- View Factor to Ground
  ,                                       !- Number of Vertices
  7, 3, 4,                                !- X,Y,Z Vertex 1 {m}
  3, 3, 4,                                !- X,Y,Z Vertex 2 {m}
  0, 0, 4,                                !- X,Y,Z Vertex 3 {m}
  10, 0, 4;                               !- X,Y,Z Vertex 4 {m}

OS:Space,
  {f6d57dde-103b-40f5-915b-4494343c63dc}, !- Handle
  Story 1 Core Space,                     !- Name
  ,                                       !- Space Type Name
  ,                                       !- Default Construction Set Name
  ,                                       !- Default Schedule Set Name
  -0,                                     !- Direction of Relative North {deg}
  3,                                      !- X Origin {m}
  3,                                      !- Y Origin {m}
  0,                                      !- Z Origin {m}
  {93fadbcd-85dc-452c-aadd-8f46b3d42fe3}, !- Building Story Name
  {cc29cb4a-6f44-495a-b3bb-259b53fceb1e}; !- Thermal Zone Name

OS:Surface,
  {27802fc8-1b7c-404f-9898-4d2fb9438863}, !- Handle
  Surface 25,                             !- Name
  Floor,                                  !- Surface Type
  ,                                       !- Construction Name
  {f6d57dde-103b-40f5-915b-4494343c63dc}, !- Space Name
  Ground,                                 !- Outside Boundary Condition
  ,                                       !- Outside Boundary Condition Object
  NoSun,                                  !- Sun Exposure
  NoWind,                                 !- Wind Exposure
  ,                                       !- View Factor to Ground
  ,                                       !- Number of Vertices
  0, 0, 0,                                !- X,Y,Z Vertex 1 {m}
  0, 4, 0,                                !- X,Y,Z Vertex 2 {m}
  4, 4, 0,                                !- X,Y,Z Vertex 3 {m}
  4, 0, 0;                                !- X,Y,Z Vertex 4 {m}

OS:Surface,
  {9ed1059b-ec20-488e-b404-22db9da06c3a}, !- Handle
  Surface 26,                             !- Name
  Wall,                                   !- Surface Type
  ,                                       !- Construction Name
  {f6d57dde-103b-40f5-915b-4494343c63dc}, !- Space Name
  Surface,                                !- Outside Boundary Condition
  {f33362de-7a3a-441b-a94f-5d8ba238b05a}, !- Outside Boundary Condition Object
  NoSun,                                  !- Sun Exposure
  NoWind,                                 !- Wind Exposure
  ,                                       !- View Factor to Ground
  ,                                       !- Number of Vertices
  0, 4, 4,                                !- X,Y,Z Vertex 1 {m}
  0, 4, 0,                                !- X,Y,Z Vertex 2 {m}
  0, 0, 0,                                !- X,Y,Z Vertex 3 {m}
  0, 0, 4;                                !- X,Y,Z Vertex 4 {m}

OS:Surface,
  {ea663e78-231f-4456-9cd7-d6d6e2ebf778}, !- Handle
  Surface 27,                             !- Name
  Wall,                                   !- Surface Type
  ,                                       !- Construction Name
  {f6d57dde-103b-40f5-915b-4494343c63dc}, !- Space Name
  Surface,                                !- Outside Boundary Condition
  {ab265620-26bb-44dd-a7db-e9d8bbfaeb81}, !- Outside Boundary Condition Object
  NoSun,                                  !- Sun Exposure
  NoWind,                                 !- Wind Exposure
  ,                                       !- View Factor to Ground
  ,                                       !- Number of Vertices
  4, 4, 4,                                !- X,Y,Z Vertex 1 {m}
  4, 4, 0,                                !- X,Y,Z Vertex 2 {m}
  0, 4, 0,                                !- X,Y,Z Vertex 3 {m}
  0, 4, 4;                                !- X,Y,Z Vertex 4 {m}

OS:Surface,
  {c14a5026-14c4-4af4-89a6-02ec915396b8}, !- Handle
  Surface 28,                             !- Name
  Wall,                                   !- Surface Type
  ,                                       !- Construction Name
  {f6d57dde-103b-40f5-915b-4494343c63dc}, !- Space Name