
OS:Version,
  {e07b1aa9-f10f-4d11-8c5e-528882f0b187}, !- Handle
  0.10.0;                                 !- Version Identifier

OS:BuildingStory,
  {f0792cfb-39d1-4d91-9d56-85f171562448}, !- Handle
  Story 1,                                !- Name
  0,                                      !- Nominal Z Coordinate {m}
  4,                                      !- Nominal Floor to Floor Height {m}
  ,                                       !- Default Construction Set Name
  ,                                       !- Default Schedule Set Name
  ;                                       !- Group Rendering Name

OS:Space,
  {fe49b6b9-1bdd-44cd-99b0-723aea60ecb8}, !- Handle
  Story 1 West Perimeter Space,           !- Name
  ,                                       !- Space Type Name
  ,                                       !- Default Construction Set Name
  ,                                       !- Default Schedule Set Name
  -0,                                     !- Direction of Relative North {deg}
  0,                                      !- X Origin {m}
  0,                                      !- Y Origin {m}
  0,                                      !- Z Origin {m}
  {f0792cfb-39d1-4d91-9d56-85f171562448}, !- Building Story Name
  {9b6ed567-7d1b-4f00-b0bc-c7c3ec5b5217}; !- Thermal Zone Name

OS:Surface,
  {33b7782a-d6ff-4d8e-aec5-e94b89c96b85}, !- Handle
  Surface 1,                              !- Name
  Floor,                                  !- Surface Type
  ,                                       !- Construction Name
  {fe49b6b9-1bdd-44cd-99b0-723aea60ecb8}, !- Space Name
  Ground,                                 !- Outside Boundary Condition
  ,                                       !- Outside Boundary Condition Object
  NoSun,                                  !- Sun Exposure
  NoWind,                                 !- Wind Exposure
  ,                                       !- View Factor to Ground
  ,                                       !- Number of Vertices
  0, 0, 0,                                !- X,Y,Z Vertex 1 {m}
  0, 12.9099444873581, 0,                 !- X,Y,Z Vertex 2 {m}
  3, 9.90994448735806, 0,                 !- X,Y,Z Vertex 3 {m}
  3, 3, 0;                                !- X,Y,Z Vertex 4 {m}

OS:Surface,
  {ad712135-be8f-4d2c-9c09-cd9b70a1eb2a}, !- Handle
  Surface 2,                              !- Name
  Wall,                                   !- Surface Type
  ,                                       !- Construction Name
  {fe49b6b9-1bdd-44cd-99b0-723aea60ecb8}, !- Space Name
  Outdoors,                               !- Outside Boundary Condition
  ,                                       !- Outside Boundary Condition Object
  SunExposed,                             !- Sun Exposure
  WindExposed,                            !- Wind Exposure
  ,                                       !- View Factor to Ground
  ,                                       !- Number of Vertices
  0, 12.9099444873581, 4,                 !- X,Y,Z Vertex 1 {m}
  0, 12.9099444873581, 0,                 !- X,Y,Z Vertex 2 {m}
  0, 0, 0,                                !- X,Y,Z Vertex 3 {m}
  0, 0, 4;                                !- X,Y,Z Vertex 4 {m}

OS:Surface,
  {1f49163d-8995-4d3a-9599-ac8aaafeedde}, !- Handle
  Surface 3,                              !- Name
  Wall,                                   !- Surface Type
  ,                                       !- Construction Name
  {fe49b6b9-1bdd-44cd-99b0-723aea60ecb8}, !- Space Name
  Surface,                                !- Outside Boundary Condition
  {6bbe444a-b3a3-46ad-bda6-65433a06d7fc}, !- Outside Boundary Condition Object
  NoSun,                                  !- Sun Exposure
  NoWind,                                 !- Wind Exposure
  ,                                       !- View Factor to Ground
  ,                                       !- Number of Vertices
  3, 9.90994448735806, 4,                 !- X,Y,Z Vertex 1 {m}
  3, 9.90994448735806, 0,                 !- X,Y,Z Vertex 2 {m}
  0, 12.9099444873581, 0,                 !- X,Y,Z Vertex 3 {m}
  0, 12.9099444873581, 4;                 !- X,Y,Z Vertex 4 {m}

OS:Surface,
  {fa1264ca-2af9-4b93-8e96-7dd7a85db5aa}, !- Handle
  Surface 4,                              !- Name
  Wall,                                   !- Surface Type
  ,                                       !- Construction Name
  {fe49b6b9-1bdd-44cd-99b0-723aea60ecb8}, !- Space Name
  Surface,                                !- Outside Boundary Condition
  {76f526bb-8aee-4bc5-ada8-302442ae6bbf}, !- Outside Boundary Condition Object
  NoSun,                                  !- Sun Exposure
  NoWind,                                 !- Wind Exposure
  ,                                       !- View Factor to Ground
  ,                                       !- Number of Vertices
  3, 3, 4,                                !- X,Y,Z Vertex 1 {m}
  3, 3, 0,                                !- X,Y,Z Vertex 2 {m}
  3, 9.90994448735806, 0,                 !- X,Y,Z Vertex 3 {m}
  3, 9.90994448735806, 4;                 !- X,Y,Z Vertex 4 {m}

OS:Surface,
  {8465899f-4354-47a0-8c82-c0ae571846a5}, !- Handle
  Surface 5,                              !- Name
  Wall,                                   !- Surface Type
  ,                                       !- Construction Name
  {fe49b6b9-1bdd-44cd-99b0-723aea60ecb8}, !- Space Name
  Surface,                                !- Outside Boundary Condition
  {4979061d-08ba-4e15-9ead-123aaffcc758}, !- Outside Boundary Condition Object
  NoSun,                                  !- Sun Exposure
  NoWind,                                 !- Wind Exposure
  ,                                       !- View Factor to Ground
  ,                                       !- Number of Vertices
  0, 0, 4,                                !- X,Y,Z Vertex 1 {m}
  0, 0, 0,                                !- X,Y,Z Vertex 2 {m}
  3, 3, 0,                                !- X,Y,Z Vertex 3 {m}
  3, 3, 4;                                !- X,Y,Z Vertex 4 {m}

OS:Surface,
  {68705a70-4187-4726-9247-8e2f4bcca740}, !- Handle
  Surface 6,                              !- Name
  RoofCeiling,                            !- Surface Type
  ,                                       !- Construction Name
  {fe49b6b9-1bdd-44cd-99b0-723aea60ecb8}, !- Space Name
  Surface,                                !- Outside Boundary Condition
  {64fe1574-1741-4736-bcc6-71e98707d3c0}, !- Outside Boundary Condition Object
  NoSun,                                  !- Sun Exposure
  NoWind,                                 !- Wind Exposure
  ,                                       !- View Factor to Ground
  ,                                       !- Number of Vertices
  3, 3, 4,                                !- X,Y,Z Vertex 1 {m}
  3, 9.90994448735806, 4,                 !- X,Y,Z Vertex 2 {m}
  0, 12.9099444873581, 4,                 !- X,Y,Z Vertex 3 {m}
  0, 0, 4;                                !- X,Y,Z Vertex 4 {m}

OS:Space,
  {a81b32f0-5818-4bc5-bac3-3751199cd579}, !- Handle
  Story 1 North Perimeter Space,          !- Name
  ,                                       !- Space Type Name
  ,                                       !- Default Construction Set Name
  ,                                       !- Default Schedule Set Name
  -0,                                     !- Direction of Relative North {deg}
  3,                                      !- X Origin {m}
  9.90994448735806,                       !- Y Origin {m}
  0,                                      !- Z Origin {m}
  {f0792cfb-39d1-4d91-9d56-85f171562448}, !- Building Story Name
  {f3791dac-ec5f-428f-b9b0-8290f9de9488}; !- Thermal Zone Name

OS:Surface,
  {9e978f23-5cfd-4634-be92-5fb2b10574d7}, !- Handle
  Surface 7,                              !- Name
  Floor,                                  !- Surface Type
  ,                                       !- Construction Name
  {a81b32f0-5818-4bc5-bac3-3751199cd579}, !- Space Name
  Ground,                                 !- Outside Boundary Condition
  ,                                       !- Outside Boundary Condition Object
  NoSun,                                  !- Sun Exposure
  NoWind,                                 !- Wind Exposure
  ,                                       !- View Factor to Ground
  ,                                       !- Number of Vertices
  -3, 3.00000000000004, 0,                !- X,Y,Z Vertex 1 {m}
  9.9099444873581, 3.00000000000004, 0,   !- X,Y,Z Vertex 2 {m}
  6.90994448735806, 5.32907051820075e-15, 0, !- X,Y,Z Vertex 3 {m}
  0, 5.32907051820075e-15, 0;             !- X,Y,Z Vertex 4 {m}

OS:Surface,
  {486b844f-f697-4896-9126-f9e9895299bf}, !- Handle
  Surface 8,                              !- Name
  Wall,                                   !- Surface Type
  ,                                       !- Construction Name
  {a81b32f0-5818-4bc5-bac3-3751199cd579}, !- Space Name
  Outdoors,                               !- Outside Boundary Condition
  ,                                       !- Outside Boundary Condition Object
  SunExposed,                             !- Sun Exposure
  WindExposed,                            !- Wind Exposure
  ,                                       !- View Factor to Ground
  ,                                       !- Number of Vertices
  9.9099444873581, 3.00000000000004, 4,   !- X,Y,Z Vertex 1 {m}
  9.9099444873581, 3.00000000000004, 0,   !- X,Y,Z Vertex 2 {m}
  -3, 3.00000000000004, 0,                !- X,Y,Z Vertex 3 {m}
  -3, 3.00000000000004, 4;                !- X,Y,Z Vertex 4 {m}

OS:Surface,
  {540b6b0e-a585-4204-96ee-6bb7c1239c72}, !- Handle
  Surface 9,                              !- Name
  Wall,                                   !- Surface Type
  ,                                       !- Construction Name
  {a81b32f0-5818-4bc5-bac3-3751199cd579}, !- Space Name
  Surface,                                !- Outside Boundary Condition
  {7248b748-5415-437e-9fb8-a09806b14d5a}, !- Outside Boundary Condition Object
  NoSun,                                  !- Sun Exposure
  NoWind,                                 !- Wind Exposure
  ,                                       !- View Factor to Ground
  ,                                       !- Number of Vertices
  6.90994448735806, 5.32907051820075e-15, 4, !- X,Y,Z Vertex 1 {m}
  6.90994448735806, 5.32907051820075e-15, 0, !- X,Y,Z Vertex 2 {m}
  9.9099444873581, 3.00000000000004, 0,   !- X,Y,Z Vertex 3 {m}
  9.9099444873581, 3.00000000000004, 4;   !- X,Y,Z Vertex 4 {m}

OS:Surface,
  {3d940988-feea-4109-aa2e-e33d4b344909}, !- Handle
  Surface 10,                             !- Name
  Wall,                                   !- Surface Type
  ,                                       !- Construction Name
  {a81b32f0-5818-4bc5-bac3-3751199cd579}, !- Space Name
  Surface,                                !- Outside Boundary Condition
  {107eb2fa-8a82-457f-840f-509fac337077}, !- Outside Boundary Condition Object
  NoSun,                                  !- Sun Exposure
  NoWind,                                 !- Wind Exposure
  ,                                       !- View Factor to Ground
  ,                                       !- Number of Vertices
  0, 5.32907051820075e-15, 4,             !- X,Y,Z Vertex 1 {m}
  0, 5.32907051820075e-15, 0,             !- X,Y,Z Vertex 2 {m}
  6.90994448735806, 5.32907051820075e-15, 0, !- X,Y,Z Vertex 3 {m}
  6.90994448735806, 5.32907051820075e-15, 4; !- X,Y,Z Vertex 4 {m}

OS:Surface,
  {6bbe444a-b3a3-46ad-bda6-65433a06d7fc}, !- Handle
  Surface 11,                             !- Name
  Wall,                                   !- Surface Type
  ,                                       !- Construction Name
  {a81b32f0-5818-4bc5-bac3-3751199cd579}, !- Space Name
  Surface,                                !- Outside Boundary Condition
  {1f49163d-8995-4d3a-9599-ac8aaafeedde}, !- Outside Boundary Condition Object
  NoSun,                                  !- Sun Exposure
  NoWind,                                 !- Wind Exposure
  ,                                       !- View Factor to Ground
  ,                                       !- Number of Vertices
  -3, 3.00000000000004, 4,                !- X,Y,Z Vertex 1 {m}
  -3, 3.00000000000004, 0,                !- X,Y,Z Vertex 2 {m}
  0, 5.32907051820075e-15, 0,             !- X,Y,Z Vertex 3 {m}
  0, 5.32907051820075e-15, 4;             !- X,Y,Z Vertex 4 {m}

OS:Surface,
  {9b7a6ad5-0c55-4114-9793-99a2b981e1e9}, !- Handle
  Surface 12,                             !- Name
  RoofCeiling,                            !- Surface Type
  ,                                       !- Construction Name
  {a81b32f0-5818-4bc5-bac3-3751199cd579}, !- Space Name
  Surface,                                !- Outside Boundary Condition
  {e6143637-4f7d-4ae7-94b2-a4d65f564603}, !- Outside Boundary Condition Object
  NoSun,                                  !- Sun Exposure
  NoWind,                                 !- Wind Exposure
  ,                                       !- View Factor to Ground
  ,                                       !- Number of Vertices
  0, 5.32907051820075e-15, 4,             !- X,Y,Z Vertex 1 {m}
  6.90994448735806, 5.32907051820075e-15, 4, !- X,Y,Z Vertex 2 {m}
  9.9099444873581, 3.00000000000004, 4,   !- X,Y,Z Vertex 3 {m}
  -3, 3.00000000000004, 4;                !- X,Y,Z Vertex 4 {m}

OS:Space,
  {7164d682-3990-4400-8cf5-ce8927763097}, !- Handle
  Story 1 East Perimeter Space,           !- Name
  ,                                       !- Space Type Name
  ,                                       !- Default Construction Set Name
  ,                                       !- Default Schedule Set Name
  -0,                                     !- Direction of Relative North {deg}
  9.90994448735806,                       !- X Origin {m}
  3,                                      !- Y Origin {m}
  0,                                      !- Z Origin {m}
  {f0792cfb-39d1-4d91-9d56-85f171562448}, !- Building Story Name
  {affcaef8-97ed-4fe1-9158-b1cdcc28aba1}; !- Thermal Zone Name

OS:Surface,
  {33cd7375-9694-4b6d-9c4a-9950749b1a70}, !- Handle
  Surface 13,                             !- Name
  Floor,                                  !- Surface Type
  ,                                       !- Construction Name
  {7164d682-3990-4400-8cf5-ce8927763097}, !- Space Name
  Ground,                                 !- Outside Boundary Condition
  ,                                       !- Outside Boundary Condition Object
  NoSun,                                  !- Sun Exposure
  NoWind,                                 !- Wind Exposure
  ,                                       !- View Factor to Ground
  ,                                       !- Number of Vertices
  3.00000000000004, 9.9099444873581, 0,   !- X,Y,Z Vertex 1 {m}
  3.00000000000004, -3, 0,                !- X,Y,Z Vertex 2 {m}
  5.32907051820075e-15, 0, 0,             !- X,Y,Z Vertex 3 {m}
  5.32907051820075e-15, 6.90994448735806, 0; !- X,Y,Z Vertex 4 {m}

OS:Surface,
  {09c0f032-c117-4770-a60d-1d08b9f3392f}, !- Handle
  Surface 14,                             !- Name
  Wall,                                   !- Surface Type
  ,                                       !- Construction Name
  {7164d682-3990-4400-8cf5-ce8927763097}, !- Space Name
  Outdoors,                               !- Outside Boundary Condition
  ,                                       !- Outside Boundary Condition Object
  SunExposed,                             !- Sun Exposure
  WindExposed,                            !- Wind Exposure
  ,                                       !- View Factor to Ground
  ,                                       !- Number of Vertices
  3.00000000000004, -3, 4,                !- X,Y,Z Vertex 1 {m}
  3.00000000000004, -3, 0,                !- X,Y,Z Vertex 2 {m}
  3.00000000000004, 9.9099444873581, 0,   !- X,Y,Z Vertex 3 {m}
  3.00000000000004, 9.9099444873581, 4;   !- X,Y,Z Vertex 4 {m}

OS:Surface,
  {7185d21f-ef29-4096-8bc8-9711cc9048fa}, !- Handle
  Surface 15,                             !- Name
  Wall,                                   !- Surface Type
  ,                                       !- Construction Name
  {7164d682-3990-4400-8cf5-ce8927763097}, !- Space Name
  Surface,                                !- Outside Boundary Condition
  {e10c48c9-7ea2-4323-b5ba-e0a277211d18}, !- Outside Boundary Condition Object
  NoSun,                                  !- Sun Exposure
  NoWind,                                 !- Wind Exposure
  ,                                       !- View Factor to Ground
  ,                                       !- Number of Vertices
  5.32907051820075e-15, 0, 4,             !- X,Y,Z Vertex 1 {m}
  5.32907051820075e-15, 0, 0,             !- X,Y,Z Vertex 2 {m}
  3.00000000000004, -3, 0,                !- X,Y,Z Vertex 3 {m}
  3.00000000000004, -3, 4;                !- X,Y,Z Vertex 4 {m}

OS:Surface,
  {b35bcb7e-4170-45c4-8d31-8ce9869b1d05}, !- Handle
  Surface 16,                             !- Name
  Wall,                                   !- Surface Type
  ,                                       !- Construction Name
  {7164d682-3990-4400-8cf5-ce8927763097}, !- Space Name
  Surface,                                !- Outside Boundary Condition
  {acc32359-7a42-4de1-8245-627f085bc52f}, !- Outside Boundary Condition Object
  NoSun,                                  !- Sun Exposure
  NoWind,                                 !- Wind Exposure
  ,                                       !- View Factor to Ground
  ,                                       !- Number of Vertices
  5.32907051820075e-15, 6.90994448735806, 4, !- X,Y,Z Vertex 1 {m}
  5.32907051820075e-15, 6.90994448735806, 0, !- X,Y,Z Vertex 2 {m}
  5.32907051820075e-15, 0, 0,             !- X,Y,Z Vertex 3 {m}
  5.32907051820075e-15, 0, 4;             !- X,Y,Z Vertex 4 {m}

OS:Surface,
  {7248b748-5415-437e-9fb8-a09806b14d5a}, !- Handle
  Surface 17,                             !- Name
  Wall,                                   !- Surface Type
  ,                                       !- Construction Name
  {7164d682-3990-4400-8cf5-ce8927763097}, !- Space Name
  Surface,                                !- Outside Boundary Condition
  {540b6b0e-a585-4204-96ee-6bb7c1239c72}, !- Outside Boundary Condition Object
  NoSun,                                  !- Sun Exposure
  NoWind,                                 !- Wind Exposure
  ,                                       !- View Factor to Ground
  ,                                       !- Number of Vertices
  3.00000000000004, 9.9099444873581, 4,   !- X,Y,Z Vertex 1 {m}
  3.00000000000004, 9.9099444873581, 0,   !- X,Y,Z Vertex 2 {m}
  5.32907051820075e-15, 6.90994448735806, 0, !- X,Y,Z Vertex 3 {m}
  5.32907051820075e-15, 6.90994448735806, 4; !- X,Y,Z Vertex 4 {m}

OS:Surface,
  {f40b2c8f-f0bc-4a80-b446-4f1c8df794f3}, !- Handle
  Surface 18,                             !- Name
  RoofCeiling,                            !- Surface Type
  ,                                       !- Construction Name
  {7164d682-3990-4400-8cf5-ce8927763097}, !- Space Name
  Surface,                                !- Outside Boundary Condition
  {7adacabd-859d-49ca-af01-f9ae0f166993}, !- Outside Boundary Condition Object
  NoSun,                                  !- Sun Exposure
  NoWind,                                 !- Wind Exposure
  ,                                       !- View Factor to Ground
  ,                                       !- Number of Vertices
  5.32907051820075e-15, 6.90994448735806, 4, !- X,Y,Z Vertex 1 {m}
  5.32907051820075e-15, 0, 4,             !- X,Y,Z Vertex 2 {m}
  3.00000000000004, -3, 4,                !- X,Y,Z Vertex 3 {m}
  3.00000000000004, 9.9099444873581, 4;   !- X,Y,Z Vertex 4 {m}

OS:Space,
  {cd9fa628-d432-4911-93ef-7316edc2c3c8}, !- Handle
  Story 1 South Perimeter Space,          !- Name
  ,                                       !- Space Type Name
  ,                                       !- Default Construction Set Name
  ,                                       !- Default Schedule Set Name
  -0,                                     !- Direction of Relative North {deg}
  0,                                      !- X Origin {m}
  0,                                      !- Y Origin {m}
  0,                                      !- Z Origin {m}
  {f0792cfb-39d1-4d91-9d56-85f171562448}, !- Building Story Name
  {7355f98f-d80b-49b6-b86a-3715aedc9aa7}; !- Thermal Zone Name

OS:Surface,
  {b75bc596-ec9c-4ff7-ace0-35d8cf0adf56}, !- Handle
  Surface 19,                             !- Name
  Floor,                                  !- Surface Type
  ,                                       !- Construction Name
  {cd9fa628-d432-4911-93ef-7316edc2c3c8}, !- Space Name
  Ground,                                 !- Outside Boundary Condition
  ,                                       !- Outside Boundary Condition Object
  NoSun,                                  !- Sun Exposure
  NoWind,                                 !- Wind Exposure
  ,                                       !- View Factor to Ground
  ,                                       !- Number of Vertices
  12.9099444873581, 0, 0,                 !- X,Y,Z Vertex 1 {m}
  0, 0, 0,                                !- X,Y,Z Vertex 2 {m}
  3, 3, 0,                                !- X,Y,Z Vertex 3 {m}
  9.90994448735806, 3, 0;                 !- X,Y,Z Vertex 4 {m}

OS:Surface,
  {05382596-b4a2-414b-9882-f00123918f1a}, !- Handle
  Surface 20,                             !- Name
  Wall,                                   !- Surface Type
  ,                                       !- Construction Name
  {cd9fa628-d432-4911-93ef-7316edc2c3c8}, !- Space Name
  Outdoors,                               !- Outside Boundary Condition
  ,                                       !- Outside Boundary Condition Object
  SunExposed,                             !- Sun Exposure
  WindExposed,                            !- Wind Exposure
  ,                                       !- View Factor to Ground
  ,                                       !- Number of Vertices
  0, 0, 4,                                !- X,Y,Z Vertex 1 {m}
  0, 0, 0,                                !- X,Y,Z Vertex 2 {m}
  12.9099444873581, 0, 0,                 !- X,Y,Z Vertex 3 {m}
  12.9099444873581, 0, 4;                 !- X,Y,Z Vertex 4 {m}

OS:Surface,
  {4979061d-08ba-4e15-9ead-123aaffcc758}, !- Handle
  Surface 21,                             !- Name
  Wall,                                   !- Surface Type
  ,                                       !- Construction Name
  {cd9fa628-d432-4911-93ef-7316edc2c3c8}, !- Space Name
  Surface,                                !- Outside Boundary Condition
  {8465899f-4354-47a0-8c82-c0ae571846a5}, !- Outside Boundary Condition Object
  NoSun,                                  !- Sun Exposure
  NoWind,                                 !- Wind Exposure
  ,                                       !- View Factor to Ground
  ,                                       !- Number of Vertices
  3, 3, 4,                                !- X,Y,Z Vertex 1 {m}
  3, 3, 0,                                !- X,Y,Z Vertex 2 {m}
  0, 0, 0,                                !- X,Y,Z Vertex 3 {m}
  0, 0, 4;                                !- X,Y,Z Vertex 4 {m}

OS:Surface,
  {58ac9f0a-a17f-4354-bf5a-b6db087db5ff}, !- Handle
  Surface 22,                             !- Name
  Wall,                                   !- Surface Type
  ,                                       !- Construction Name
  {cd9fa628-d432-4911-93ef-7316edc2c3c8}, !- Space Name
  Surface,                                !- Outside Boundary Condition
  {1c5d48f9-0f78-4870-8e88-ffb495415972}, !- Outside Boundary Condition Object
  NoSun,                                  !- Sun Exposure
  NoWind,                                 !- Wind Exposure
  ,                                       !- View Factor to Ground
  ,                                       !- Number of Vertices
  9.90994448735806, 3, 4,                 !- X,Y,Z Vertex 1 {m}
  9.90994448735806, 3, 0,                 !- X,Y,Z Vertex 2 {m}
  3, 3, 0,                                !- X,Y,Z Vertex 3 {m}
  3, 3, 4;                                !- X,Y,Z Vertex 4 {m}

OS:Surface,
  {e10c48c9-7ea2-4323-b5ba-e0a277211d18}, !- Handle
  Surface 23,                             !- Name
  Wall,                                   !- Surface Type
  ,                                       !- Construction Name
  {cd9fa628-d432-4911-93ef-7316edc2c3c8}, !- Space Name
  Surface,                                !- Outside Boundary Condition
  {7185d21f-ef29-4096-8bc8-9711cc9048fa}, !- Outside Boundary Condition Object
  NoSun,                                  !- Sun Exposure
  NoWind,                                 !- Wind Exposure
  ,                                       !- View Factor to Ground
  ,                                       !- Number of Vertices
  12.9099444873581, 0, 4,                 !- X,Y,Z Vertex 1 {m}
  12.9099444873581, 0, 0,                 !- X,Y,Z Vertex 2 {m}
  9.90994448735806, 3, 0,                 !- X,Y,Z Vertex 3 {m}
  9.90994448735806, 3, 4;                 !- X,Y,Z Vertex 4 {m}

OS:Surface,
  {2504460d-d661-4fd2-b791-06aabf203921}, !- Handle
  Surface 24,                             !- Name
  RoofCeiling,                            !- Surface Type
  ,                                       !- Construction Name
  {cd9fa628-d432-4911-93ef-7316edc2c3c8}, !- Space Name
  Surface,                                !- Outside Boundary Condition
  {b12a77c7-99a5-470e-9d44-8e0050973885}, !- Outside Boundary Condition Object
  NoSun,                                  !- Sun Exposure
  NoWind,                                 !- Wind Exposure
  ,                                       !- View Factor to Ground
  ,                                       !- Number of Vertices
  9.90994448735806, 3, 4,                 !- X,Y,Z Vertex 1 {m}
  3, 3, 4,                                !- X,Y,Z Vertex 2 {m}
  0, 0, 4,                                !- X,Y,Z Vertex 3 {m}
  12.9099444873581, 0, 4;                 !- X,Y,Z Vertex 4 {m}

OS:Space,
  {d35319ec-8124-406c-99e8-ebac1e74ea74}, !- Handle
  Story 1 Core Space,                     !- Name
  ,                                       !- Space Type Name
  ,                                       !- Default Construction Set Name
  ,                                       !- Default Schedule Set Name
  -0,                                     !- Direction of Relative North {deg}
  3,                                      !- X Origin {m}
  3,                                      !- Y Origin {m}
  0,                                      !- Z Origin {m}
  {f0792cfb-39d1-4d91-9d56-85f171562448}, !- Building Story Name
  {6574fd36-88e0-4f0e-aa3b-9d2e30fa18e7}; !- Thermal Zone Name

OS:Surface,
  {c581da36-d673-401b-a480-e8fb06007f45}, !- Handle
  Surface 25,                             !- Name
  Floor,                                  !- Surface Type
  ,                                       !- Construction Name
  {d35319ec-8124-406c-99e8-ebac1e74ea74}, !- Space Name
  Ground,                                 !- Outside Boundary Condition
  ,                                       !- Outside Boundary Condition Object
  NoSun,                                  !- Sun Exposure
  NoWind,                                 !- Wind Exposure
  ,                                       !- View Factor to Ground
  ,                                       !- Number of Vertices
  0, 0, 0,                                !- X,Y,Z Vertex 1 {m}
  0, 6.90994448735806, 0,                 !- X,Y,Z Vertex 2 {m}
  6.90994448735806, 6.90994448735806, 0,  !- X,Y,Z Vertex 3 {m}
  6.90994448735806, 0, 0;                 !- X,Y,Z Vertex 4 {m}

OS:Surface,
  {76f526bb-8aee-4bc5-ada8-302442ae6bbf}, !- Handle
  Surface 26,                             !- Name
  Wall,                                   !- Surface Type
  ,                                       !- Construction Name
  {d35319ec-8124-406c-99e8-ebac1e74ea74}, !- Space Name
  Surface,                                !- Outside Boundary Condition
  {fa1264ca-2af9-4b93-8e96-7dd7a85db5aa}, !- Outside Boundary Condition Object
  NoSun,                                  !- Sun Exposure
  NoWind,                                 !- Wind Exposure
  ,                                       !- View Factor to Ground
  ,                                       !- Number of Vertices
  0, 6.90994448735806, 4,                 !- X,Y,Z Vertex 1 {m}
  0, 6.90994448735806, 0,                 !- X,Y,Z Vertex 2 {m}
  0, 0, 0,                                !- X,Y,Z Vertex 3 {m}
  0, 0, 4;                                !- X,Y,Z Vertex 4 {m}

OS:Surface,
  {107eb2fa-8a82-457f-840f-509fac337077}, !- Handle
  Surface 27,                             !- Name
  Wall,                                   !- Surface Type
  ,                                       !- Construction Name
  {d35319ec-8124-406c-99e8-ebac1e74ea74}, !- Space Name
  Surface,                                !- Outside Boundary Condition
  {3d940988-feea-4109-aa2e-e33d4b344909}, !- Outside Boundary Condition Object
  NoSun,                                  !- Sun Exposure
  NoWind,                                 !- Wind Exposure
  ,                                       !- View Factor to Ground
  ,                                       !- Number of Vertices
  6.90994448735806, 6.90994448735806, 4,  !- X,Y,Z Vertex 1 {m}
  6.90994448735806, 6.90994448735806, 0,  !- X,Y,Z Vertex 2 {m}
  0, 6.90994448735806, 0,                 !- X,Y,Z Vertex 3 {m}
  0, 6.90994448735806, 4;                 !- X,Y,Z Vertex 4 {m}

OS:Surface,
  {acc32359-7a42-4de1-8245-627f085bc52f}, !- Handle
  Surface 28,                             !- Name
  Wall,                                   !- Surface Type
  ,                                       !- Construction Name