
OS:Version,
  {476d8b7c-8688-4f71-9f21-691c64950ab4}, !- Handle
  0.10.0;                                 !- Version Identifier

OS:BuildingStory,
  {b44dea87-ef4d-40a2-b4a6-23b8215db602}, !- Handle
  Story 1,                                !- Name
  0,                                      !- Nominal Z Coordinate {m}
  4,                                      !- Nominal Floor to Floor Height {m}
  ,                                       !- Default Construction Set Name
  ,                                       !- Default Schedule Set Name
  ;                                       !- Group Rendering Name

OS:Space,
  {44212ed4-729f-4963-a0c5-c12783bf0133}, !- Handle
  Story 1 West Perimeter Space,           !- Name
  ,                                       !- Space Type Name
  ,                                       !- Default Construction Set Name
  ,                                       !- Default Schedule Set Name
  -0,                                     !- Direction of Relative North {deg}
  0,                                      !- X Origin {m}
  0,                                      !- Y Origin {m}
  0,                                      !- Z Origin {m}
  {b44dea87-ef4d-40a2-b4a6-23b8215db602}, !- Building Story Name
  {49f2fd0e-2e60-46de-a1a7-324b4c7dcf13}; !- Thermal Zone Name

OS:Surface,
  {4d846d5c-92c0-43a0-bc28-9a115a5f7f6d}, !- Handle
  Surface 1,                              !- Name
  Floor,                                  !- Surface Type
  ,                                       !- Construction Name
  {44212ed4-729f-4963-a0c5-c12783bf0133}, !- Space Name
  Ground,                                 !- Outside Boundary Condition
  ,                                       !- Outside Boundary Condition Object
  NoSun,                                  !- Sun Exposure
  NoWind,                                 !- Wind Exposure
  ,                                       !- View Factor to Ground
  ,                                       !- Number of Vertices
  0, 0, 0,                                !- X,Y,Z Vertex 1 {m}
  0, 21.3307290077015, 0,                 !- X,Y,Z Vertex 2 {m}
  3, 18.3307290077015, 0,                 !- X,Y,Z Vertex 3 {m}
  3, 3, 0;                                !- X,Y,Z Vertex 4 {m}

OS:Surface,
  {a6cef25e-1e2a-417a-8085-9b66c164cb3b}, !- Handle
  Surface 2,                              !- Name
  Wall,                                   !- Surface Type
  ,                                       !- Construction Name
  {44212ed4-729f-4963-a0c5-c12783bf0133}, !- Space Name
  Outdoors,                               !- Outside Boundary Condition
  ,                                       !- Outside Boundary Condition Object
  SunExposed,                             !- Sun Exposure
  WindExposed,                            !- Wind Exposure
  ,                                       !- View Factor to Ground
  ,                                       !- Number of Vertices
  0, 21.3307290077015, 4,                 !- X,Y,Z Vertex 1 {m}
  0, 21.3307290077015, 0,                 !- X,Y,Z Vertex 2 {m}
  0, 0, 0,                                !- X,Y,Z Vertex 3 {m}
  0, 0, 4;                                !- X,Y,Z Vertex 4 {m}

OS:Surface,
  {77da37d1-c6c6-48da-84ef-518bff1c9533}, !- Handle
  Surface 3,                              !- Name
  Wall,                                   !- Surface Type
  ,                                       !- Construction Name
  {44212ed4-729f-4963-a0c5-c12783bf0133}, !- Space Name
  Surface,                                !- Outside Boundary Condition
  {4239c56d-b9f1-4988-b85c-9c00a95f4ec1}, !- Outside Boundary Condition Object
  NoSun,                                  !- Sun Exposure
  NoWind,                                 !- Wind Exposure
  ,                                       !- View Factor to Ground
  ,                                       !- Number of Vertices
  3, 18.3307290077015, 4,                 !- X,Y,Z Vertex 1 {m}
  3, 18.3307290077015, 0,                 !- X,Y,Z Vertex 2 {m}
  0, 21.3307290077015, 0,                 !- X,Y,Z Vertex 3 {m}
  0, 21.3307290077015, 4;                 !- X,Y,Z Vertex 4 {m}

OS:Surface,
  {6a739c3f-4287-4b7e-a5f3-9f4485ce213f}, !- Handle
  Surface 4,                              !- Name
  Wall,                                   !- Surface Type
  ,                                       !- Construction Name
  {44212ed4-729f-4963-a0c5-c12783bf0133}, !- Space Name
  Surface,                                !- Outside Boundary Condition
  {edd183f6-db6c-4856-b21e-475436637977}, !- Outside Boundary Condition Object
  NoSun,                                  !- Sun Exposure
  NoWind,                                 !- Wind Exposure
  ,                                       !- View Factor to Ground
  ,                                       !- Number of Vertices
  3, 3, 4,                                !- X,Y,Z Vertex 1 {m}
  3, 3, 0,                                !- X,Y,Z Vertex 2 {m}
  3, 18.3307290077015, 0,                 !- X,Y,Z Vertex 3 {m}
  3, 18.3307290077015, 4;                 !- X,Y,Z Vertex 4 {m}

OS:Surface,
  {2d35d57a-131c-4366-8e2b-992c2dbbed1a}, !- Handle
  Surface 5,                              !- Name
  Wall,                                   !- Surface Type
  ,                                       !- Construction Name
  {44212ed4-729f-4963-a0c5-c12783bf0133}, !- Space Name
  Surface,                                !- Outside Boundary Condition
  {ef5a36d7-54e3-485a-92cf-9a18486a3192}, !- Outside Boundary Condition Object
  NoSun,                                  !- Sun Exposure
  NoWind,                                 !- Wind Exposure
  ,                                       !- View Factor to Ground
  ,                                       !- Number of Vertices
  0, 0, 4,                                !- X,Y,Z Vertex 1 {m}
  0, 0, 0,                                !- X,Y,Z Vertex 2 {m}
  3, 3, 0,                                !- X,Y,Z Vertex 3 {m}
  3, 3, 4;                                !- X,Y,Z Vertex 4 {m}

OS:Surface,
  {19154023-a41f-42b4-ba92-36da8e5cfe8d}, !- Handle
  Surface 6,                              !- Name
  RoofCeiling,                            !- Surface Type
  ,                                       !- Construction Name
  {44212ed4-729f-4963-a0c5-c12783bf0133}, !- Space Name
  Outdoors,                               !- Outside Boundary Condition
  ,                                       !- Outside Boundary Condition Object
  SunExposed,                             !- Sun Exposure
  WindExposed,                            !- Wind Exposure
  ,                                       !- View Factor to Ground
  ,                                       !- Number of Vertices
  3, 3, 4,                                !- X,Y,Z Vertex 1 {m}
  3, 18.3307290077015, 4,                 !- X,Y,Z Vertex 2 {m}
  0, 21.3307290077015, 4,                 !- X,Y,Z Vertex 3 {m}
  0, 0, 4;                                !- X,Y,Z Vertex 4 {m}

OS:Space,
  {eb3250d6-75ab-4332-a994-ab5e40de2b8a}, !- Handle
  Story 1 North Perimeter Space,          !- Name
  ,                                       !- Space Type Name
  ,                                       !- Default Construction Set Name
  ,                                       !- Default Schedule Set Name
  -0,                                     !- Direction of Relative North {deg}
  3,                                      !- X Origin {m}
  18.3307290077015,                       !- Y Origin {m}
  0,                                      !- Z Origin {m}
  {b44dea87-ef4d-40a2-b4a6-23b8215db602}, !- Building Story Name
  {00d7a4ab-27c1-4899-aa12-ad8413012d64}; !- Thermal Zone Name

OS:Surface,
  {88dd6692-cc10-426a-9a6c-7f2fc4d3b761}, !- Handle
  Surface 7,                              !- Name
  Floor,                                  !- Surface Type
  ,                                       !- Construction Name
  {eb3250d6-75ab-4332-a994-ab5e40de2b8a}, !- Space Name
  Ground,                                 !- Outside Boundary Condition
  ,                                       !- Outside Boundary Condition Object
  NoSun,                                  !- Sun Exposure
  NoWind,                                 !- Wind Exposure
  ,                                       !- View Factor to Ground
  ,                                       !- Number of Vertices
  -3, 2.99999999999996, 0,                !- X,Y,Z Vertex 1 {m}
  18.3307290077015, 2.99999999999996, 0,  !- X,Y,Z Vertex 2 {m}
  15.3307290077015, -4.2632564145606e-14, 0, !- X,Y,Z Vertex 3 {m}
  0, -4.2632564145606e-14, 0;             !- X,Y,Z Vertex 4 {m}

OS:Surface,
  {5b1faeca-77f6-48fb-a980-6ca21c9908e3}, !- Handle
  Surface 8,                              !- Name
  Wall,                                   !- Surface Type
  ,                                       !- Construction Name
  {eb3250d6-75ab-4332-a994-ab5e40de2b8a}, !- Space Name
  Outdoors,                               !- Outside Boundary Condition
  ,                                       !- Outside Boundary Condition Object
  SunExposed,                             !- Sun Exposure
  WindExposed,                            !- Wind Exposure
  ,                                       !- View Factor to Ground
  ,                                       !- Number of Vertices
  18.3307290077015, 2.99999999999996, 4,  !- X,Y,Z Vertex 1 {m}
  18.3307290077015, 2.99999999999996, 0,  !- X,Y,Z Vertex 2 {m}
  -3, 2.99999999999996, 0,                !- X,Y,Z Vertex 3 {m}
  -3, 2.99999999999996, 4;                !- X,Y,Z Vertex 4 {m}

OS:Surface,
  {dd818f75-1c10-41e2-b513-d951c2582313}, !- Handle
  Surface 9,                              !- Name
  Wall,                                   !- Surface Type
  ,                                       !- Construction Name
  {eb3250d6-75ab-4332-a994-ab5e40de2b8a}, !- Space Name
  Surface,                                !- Outside Boundary Condition
  {11d3a842-6209-4467-8018-a46361d6662a}, !- Outside Boundary Condition Object
  NoSun,                                  !- Sun Exposure
  NoWind,                                 !- Wind Exposure
  ,                                       !- View Factor to Ground
  ,                                       !- Number of Vertices
  15.3307290077015, -4.2632564145606e-14, 4, !- X,Y,Z Vertex 1 {m}
  15.3307290077015, -4.2632564145606e-14, 0, !- X,Y,Z Vertex 2 {m}
  18.3307290077015, 2.99999999999996, 0,  !- X,Y,Z Vertex 3 {m}
  18.3307290077015, 2.99999999999996, 4;  !- X,Y,Z Vertex 4 {m}

OS:Surface,
  {4250ef23-8caf-40ec-8a07-c5eb711e8a99}, !- Handle
  Surface 10,                             !- Name
  Wall,                                   !- Surface Type
  ,                                       !- Construction Name
  {eb3250d6-75ab-4332-a994-ab5e40de2b8a}, !- Space Name
  Surface,                                !- Outside Boundary Condition
  {3bba23ff-1f60-4d61-8b12-e13a1757a722}, !- Outside Boundary Condition Object
  NoSun,                                  !- Sun Exposure
  NoWind,                                 !- Wind Exposure
  ,                                       !- View Factor to Ground
  ,                                       !- Number of Vertices
  0, -4.2632564145606e-14, 4,             !- X,Y,Z Vertex 1 {m}
  0, -4.2632564145606e-14, 0,             !- X,Y,Z Vertex 2 {m}
  15.3307290077015, -4.2632564145606e-14, 0, !- X,Y,Z Vertex 3 {m}
  15.3307290077015, -4.2632564145606e-14, 4; !- X,Y,Z Vertex 4 {m}

OS:Surface,
  {4239c56d-b9f1-4988-b85c-9c00a95f4ec1}, !- Handle
  Surface 11,                             !- Name
  Wall,                                   !- Surface Type
  ,                                       !- Construction Name
  {eb3250d6-75ab-4332-a994-ab5e40de2b8a}, !- Space Name
  Surface,                                !- Outside Boundary Condition
  {77da37d1-c6c6-48da-84ef-518bff1c9533}, !- Outside Boundary Condition Object
  NoSun,                                  !- Sun Exposure
  NoWind,                                 !- Wind Exposure
  ,                                       !- View Factor to Ground
  ,                                       !- Number of Vertices
  -3, 2.99999999999996, 4,                !- X,Y,Z Vertex 1 {m}
  -3, 2.99999999999996, 0,                !- X,Y,Z Vertex 2 {m}
  0, -4.2632564145606e-14, 0,             !- X,Y,Z Vertex 3 {m}
  0, -4.2632564145606e-14, 4;             !- X,Y,Z Vertex 4 {m}

OS:Surface,
  {04aafe52-6037-4ac2-a32a-f79c56890a56}, !- Handle
  Surface 12,                             !- Name
  RoofCeiling,                            !- Surface Type
  ,                                       !- Construction Name
  {eb3250d6-75ab-4332-a994-ab5e40de2b8a}, !- Space Name
  Outdoors,                               !- Outside Boundary Condition
  ,                                       !- Outside Boundary Condition Object
  SunExposed,                             !- Sun Exposure
  WindExposed,                            !- Wind Exposure
  ,                                       !- View Factor to Ground
  ,                                       !- Number of Vertices
  0, -4.2632564145606e-14, 4,             !- X,Y,Z Vertex 1 {m}
  15.3307290077015, -4.2632564145606e-14, 4, !- X,Y,Z Vertex 2 {m}
  18.3307290077015, 2.99999999999996, 4,  !- X,Y,Z Vertex 3 {m}
  -3, 2.99999999999996, 4;                !- X,Y,Z Vertex 4 {m}

OS:Space,
  {82c6bb31-b39d-4b8a-9cac-59c68867c2c7}, !- Handle
  Story 1 East Perimeter Space,           !- Name
  ,                                       !- Space Type Name
  ,                                       !- Default Construction Set Name
  ,                                       !- Default Schedule Set Name
  -0,                                     !- Direction of Relative North {deg}
  18.3307290077015,                       !- X Origin {m}
  3,                                      !- Y Origin {m}
  0,                                      !- Z Origin {m}
  {b44dea87-ef4d-40a2-b4a6-23b8215db602}, !- Building Story Name
  {f3fb5f81-0931-46a7-a0a9-a62f62562100}; !- Thermal Zone Name

OS:Surface,
  {4a5e119c-b492-4b90-b6c9-fc3be5e633da}, !- Handle
  Surface 13,                             !- Name
  Floor,                                  !- Surface Type
  ,                                       !- Construction Name
  {82c6bb31-b39d-4b8a-9cac-59c68867c2c7}, !- Space Name
  Ground,                                 !- Outside Boundary Condition
  ,                                       !- Outside Boundary Condition Object
  NoSun,                                  !- Sun Exposure
  NoWind,                                 !- Wind Exposure
  ,                                       !- View Factor to Ground
  ,                                       !- Number of Vertices
  2.99999999999996, 18.3307290077015, 0,  !- X,Y,Z Vertex 1 {m}
  2.99999999999996, -3, 0,                !- X,Y,Z Vertex 2 {m}
  -4.2632564145606e-14, 0, 0,             !- X,Y,Z Vertex 3 {m}
  -4.2632564145606e-14, 15.3307290077015, 0; !- X,Y,Z Vertex 4 {m}

OS:Surface,
  {df951692-9318-43f2-8b8b-01e644158db7}, !- Handle
  Surface 14,                             !- Name
  Wall,                                   !- Surface Type
  ,                                       !- Construction Name
  {82c6bb31-b39d-4b8a-9cac-59c68867c2c7}, !- Space Name
  Outdoors,                               !- Outside Boundary Condition
  ,                                       !- Outside Boundary Condition Object
  SunExposed,                             !- Sun Exposure
  WindExposed,                            !- Wind Exposure
  ,                                       !- View Factor to Ground
  ,                                       !- Number of Vertices
  2.99999999999996, -3, 4,                !- X,Y,Z Vertex 1 {m}
  2.99999999999996, -3, 0,                !- X,Y,Z Vertex 2 {m}
  2.99999999999996, 18.3307290077015, 0,  !- X,Y,Z Vertex 3 {m}
  2.99999999999996, 18.3307290077015, 4;  !- X,Y,Z Vertex 4 {m}

OS:Surface,
  {42b11c32-704c-4788-b4ef-fabfeed22822}, !- Handle
  Surface 15,                             !- Name
  Wall,                                   !- Surface Type
  ,                                       !- Construction Name
  {82c6bb31-b39d-4b8a-9cac-59c68867c2c7}, !- Space Name
  Surface,                                !- Outside Boundary Condition
  {3706edc6-b395-43b6-9585-84ca77f40279}, !- Outside Boundary Condition Object
  NoSun,                                  !- Sun Exposure
  NoWind,                                 !- Wind Exposure
  ,                                       !- View Factor to Ground
  ,                                       !- Number of Vertices
  -4.2632564145606e-14, 0, 4,             !- X,Y,Z Vertex 1 {m}
  -4.2632564145606e-14, 0, 0,             !- X,Y,Z Vertex 2 {m}
  2.99999999999996, -3, 0,                !- X,Y,Z Vertex 3 {m}
  2.99999999999996, -3, 4;                !- X,Y,Z Vertex 4 {m}

OS:Surface,
  {ce9a912b-269c-4781-81cf-f64596abf499}, !- Handle
  Surface 16,                             !- Name
  Wall,                                   !- Surface Type
  ,                                       !- Construction Name
  {82c6bb31-b39d-4b8a-9cac-59c68867c2c7}, !- Space Name
  Surface,                                !- Outside Boundary Condition
  {128e2d76-6474-4838-95fe-4af444fc6677}, !- Outside Boundary Condition Object
  NoSun,                                  !- Sun Exposure
  NoWind,                                 !- Wind Exposure
  ,                                       !- View Factor to Ground
  ,                                       !- Number of Vertices
  -4.2632564145606e-14, 15.3307290077015, 4, !- X,Y,Z Vertex 1 {m}
  -4.2632564145606e-14, 15.3307290077015, 0, !- X,Y,Z Vertex 2 {m}
  -4.2632564145606e-14, 0, 0,             !- X,Y,Z Vertex 3 {m}
  -4.2632564145606e-14, 0, 4;             !- X,Y,Z Vertex 4 {m}

OS:Surface,
  {11d3a842-6209-4467-8018-a46361d6662a}, !- Handle
  Surface 17,                             !- Name
  Wall,                                   !- Surface Type
  ,                                       !- Construction Name
  {82c6bb31-b39d-4b8a-9cac-59c68867c2c7}, !- Space Name
  Surface,                                !- Outside Boundary Condition
  {dd818f75-1c10-41e2-b513-d951c2582313}, !- Outside Boundary Condition Object
  NoSun,                                  !- Sun Exposure
  NoWind,                                 !- Wind Exposure
  ,                                       !- View Factor to Ground
  ,                                       !- Number of Vertices
  2.99999999999996, 18.3307290077015, 4,  !- X,Y,Z Vertex 1 {m}
  2.99999999999996, 18.3307290077015, 0,  !- X,Y,Z Vertex 2 {m}
  -4.2632564145606e-14, 15.3307290077015, 0, !- X,Y,Z Vertex 3 {m}
  -4.2632564145606e-14, 15.3307290077015, 4; !- X,Y,Z Vertex 4 {m}

OS:Surface,
  {6a8265ea-48b4-4037-9e35-a4b3637c70da}, !- Handle
  Surface 18,                             !- Name
  RoofCeiling,                            !- Surface Type
  ,                                       !- Construction Name
  {82c6bb31-b39d-4b8a-9cac-59c68867c2c7}, !- Space Name
  Outdoors,                               !- Outside Boundary Condition
  ,                                       !- Outside Boundary Condition Object
  SunExposed,                             !- Sun Exposure
  WindExposed,                            !- Wind Exposure
  ,                                       !- View Factor to Ground
  ,                                       !- Number of Vertices
  -4.2632564145606e-14, 15.3307290077015, 4, !- X,Y,Z Vertex 1 {m}
  -4.2632564145606e-14, 0, 4,             !- X,Y,Z Vertex 2 {m}
  2.99999999999996, -3, 4,                !- X,Y,Z Vertex 3 {m}
  2.99999999999996, 18.3307290077015, 4;  !- X,Y,Z Vertex 4 {m}

OS:Space,
  {d77ba8e1-da97-4bb3-801c-5a30917444d3}, !- Handle
  Story 1 South Perimeter Space,          !- Name
  ,                                       !- Space Type Name
  ,                                       !- Default Construction Set Name
  ,                                       !- Default Schedule Set Name
  -0,                                     !- Direction of Relative North {deg}
  0,                                      !- X Origin {m}
  0,                                      !- Y Origin {m}
  0,                                      !- Z Origin {m}
  {b44dea87-ef4d-40a2-b4a6-23b8215db602}, !- Building Story Name
  {60290640-5ed9-4f08-ba8d-48a8ea2efa4b}; !- Thermal Zone Name

OS:Surface,
  {78bc123e-ef9b-4ce2-8919-db3d72dd3be7}, !- Handle
  Surface 19,                             !- Name
  Floor,                                  !- Surface Type
  ,                                       !- Construction Name
  {d77ba8e1-da97-4bb3-801c-5a30917444d3}, !- Space Name
  Ground,                                 !- Outside Boundary Condition
  ,                                       !- Outside Boundary Condition Object
  NoSun,                                  !- Sun Exposure
  NoWind,                                 !- Wind Exposure
  ,                                       !- View Factor to Ground
  ,                                       !- Number of Vertices
  21.3307290077015, 0, 0,                 !- X,Y,Z Vertex 1 {m}
  0, 0, 0,                                !- X,Y,Z Vertex 2 {m}
  3, 3, 0,                                !- X,Y,Z Vertex 3 {m}
  18.3307290077015, 3, 0;                 !- X,Y,Z Vertex 4 {m}

OS:Surface,
  {78252fcd-36b6-4674-a64a-e4a196ceb93b}, !- Handle
  Surface 20,                             !- Name
  Wall,                                   !- Surface Type
  ,                                       !- Construction Name
  {d77ba8e1-da97-4bb3-801c-5a30917444d3}, !- Space Name
  Outdoors,                               !- Outside Boundary Condition
  ,                                       !- Outside Boundary Condition Object
  SunExposed,                             !- Sun Exposure
  WindExposed,                            !- Wind Exposure
  ,                                       !- View Factor to Ground
  ,                                       !- Number of Vertices
  0, 0, 4,                                !- X,Y,Z Vertex 1 {m}
  0, 0, 0,                                !- X,Y,Z Vertex 2 {m}
  21.3307290077015, 0, 0,                 !- X,Y,Z Vertex 3 {m}
  21.3307290077015, 0, 4;                 !- X,Y,Z Vertex 4 {m}

OS:Surface,
  {ef5a36d7-54e3-485a-92cf-9a18486a3192}, !- Handle
  Surface 21,                             !- Name
  Wall,                                   !- Surface Type
  ,                                       !- Construction Name
  {d77ba8e1-da97-4bb3-801c-5a30917444d3}, !- Space Name
  Surface,                                !- Outside Boundary Condition
  {2d35d57a-131c-4366-8e2b-992c2dbbed1a}, !- Outside Boundary Condition Object
  NoSun,                                  !- Sun Exposure
  NoWind,                                 !- Wind Exposure
  ,                                       !- View Factor to Ground
  ,                                       !- Number of Vertices
  3, 3, 4,                                !- X,Y,Z Vertex 1 {m}
  3, 3, 0,                                !- X,Y,Z Vertex 2 {m}
  0, 0, 0,                                !- X,Y,Z Vertex 3 {m}
  0, 0, 4;                                !- X,Y,Z Vertex 4 {m}

OS:Surface,
  {89e5069e-cdd4-40fb-8a48-59483949dd0e}, !- Handle
  Surface 22,                             !- Name
  Wall,                                   !- Surface Type
  ,                                       !- Construction Name
  {d77ba8e1-da97-4bb3-801c-5a30917444d3}, !- Space Name
  Surface,                                !- Outside Boundary Condition
  {3af663dc-53bf-4f0b-89af-3f6f6a5cc19e}, !- Outside Boundary Condition Object
  NoSun,                                  !- Sun Exposure
  NoWind,                                 !- Wind Exposure
  ,                                       !- View Factor to Ground
  ,                                       !- Number of Vertices
  18.3307290077015, 3, 4,                 !- X,Y,Z Vertex 1 {m}
  18.3307290077015, 3, 0,                 !- X,Y,Z Vertex 2 {m}
  3, 3, 0,                                !- X,Y,Z Vertex 3 {m}
  3, 3, 4;                                !- X,Y,Z Vertex 4 {m}

OS:Surface,
  {3706edc6-b395-43b6-9585-84ca77f40279}, !- Handle
  Surface 23,                             !- Name
  Wall,                                   !- Surface Type
  ,                                       !- Construction Name
  {d77ba8e1-da97-4bb3-801c-5a30917444d3}, !- Space Name
  Surface,                                !- Outside Boundary Condition
  {42b11c32-704c-4788-b4ef-fabfeed22822}, !- Outside Boundary Condition Object
  NoSun,                                  !- Sun Exposure
  NoWind,                                 !- Wind Exposure
  ,                                       !- View Factor to Ground
  ,                                       !- Number of Vertices
  21.3307290077015, 0, 4,                 !- X,Y,Z Vertex 1 {m}
  21.3307290077015, 0, 0,                 !- X,Y,Z Vertex 2 {m}
  18.3307290077015, 3, 0,                 !- X,Y,Z Vertex 3 {m}
  18.3307290077015, 3, 4;                 !- X,Y,Z Vertex 4 {m}

OS:Surface,
  {885ff5cd-58fa-48ae-83a5-7c4e96217c32}, !- Handle
  Surface 24,                             !- Name
  RoofCeiling,                            !- Surface Type
  ,                                       !- Construction Name
  {d77ba8e1-da97-4bb3-801c-5a30917444d3}, !- Space Name
  Outdoors,                               !- Outside Boundary Condition
  ,                                       !- Outside Boundary Condition Object
  SunExposed,                             !- Sun Exposure
  WindExposed,                            !- Wind Exposure
  ,                                       !- View Factor to Ground
  ,                                       !- Number of Vertices
  18.3307290077015, 3, 4,                 !- X,Y,Z Vertex 1 {m}
  3, 3, 4,                                !- X,Y,Z Vertex 2 {m}
  0, 0, 4,                                !- X,Y,Z Vertex 3 {m}
  21.3307290077015, 0, 4;                 !- X,Y,Z Vertex 4 {m}

OS:Space,
  {6f0b9b61-e842-45b6-93f9-a4d769202af2}, !- Handle
  Story 1 Core Space,                     !- Name
  ,                                       !- Space Type Name
  ,                                       !- Default Construction Set Name
  ,                                       !- Default Schedule Set Name
  -0,                                     !- Direction of Relative North {deg}
  3,                                      !- X Origin {m}
  3,                                      !- Y Origin {m}
  0,                                      !- Z Origin {m}
  {b44dea87-ef4d-40a2-b4a6-23b8215db602}, !- Building Story Name
  {a420bb85-59b8-4bb0-852b-171c9c1b6b02}; !- Thermal Zone Name

OS:Surface,
  {626811bf-7cc5-4482-b7e1-edc231ea8842}, !- Handle
  Surface 25,                             !- Name
  Floor,                                  !- Surface Type
  ,                                       !- Construction Name
  {6f0b9b61-e842-45b6-93f9-a4d769202af2}, !- Space Name
  Ground,                                 !- Outside Boundary Condition
  ,                                       !- Outside Boundary Condition Object
  NoSun,                                  !- Sun Exposure
  NoWind,                                 !- Wind Exposure
  ,                                       !- View Factor to Ground
  ,                                       !- Number of Vertices
  0, 0, 0,                                !- X,Y,Z Vertex 1 {m}
  0, 15.3307290077015, 0,                 !- X,Y,Z Vertex 2 {m}
  15.3307290077015, 15.3307290077015, 0,  !- X,Y,Z Vertex 3 {m}
  15.3307290077015, 0, 0;                 !- X,Y,Z Vertex 4 {m}

OS:Surface,
  {edd183f6-db6c-4856-b21e-475436637977}, !- Handle
  Surface 26,                             !- Name
  Wall,                                   !- Surface Type
  ,                                       !- Construction Name
  {6f0b9b61-e842-45b6-93f9-a4d769202af2}, !- Space Name
  Surface,                                !- Outside Boundary Condition
  {6a739c3f-4287-4b7e-a5f3-9f4485ce213f}, !- Outside Boundary Condition Object
  NoSun,                                  !- Sun Exposure
  NoWind,                                 !- Wind Exposure
  ,                                       !- View Factor to Ground
  ,                                       !- Number of Vertices
  0, 15.3307290077015, 4,                 !- X,Y,Z Vertex 1 {m}
  0, 15.3307290077015, 0,                 !- X,Y,Z Vertex 2 {m}
  0, 0, 0,                                !- X,Y,Z Vertex 3 {m}
  0, 0, 4;                                !- X,Y,Z Vertex 4 {m}

OS:Surface,
  {3bba23ff-1f60-4d61-8b12-e13a1757a722}, !- Handle
  Surface 27,                             !- Name
  Wall,                                   !- Surface Type
  ,                                       !- Construction Name
  {6f0b9b61-e842-45b6-93f9-a4d769202af2}, !- Space Name
  Surface,                                !- Outside Boundary Condition
  {4250ef23-8caf-40ec-8a07-c5eb711e8a99}, !- Outside Boundary Condition Object
  NoSun,                                  !- Sun Exposure
  NoWind,                                 !- Wind Exposure
  ,                                       !- View Factor to Ground
  ,                                       !- Number of Vertices
  15.3307290077015, 15.3307290077015, 4,  !- X,Y,Z Vertex 1 {m}
  15.3307290077015, 15.3307290077015, 0,  !- X,Y,Z Vertex 2 {m}
  0, 15.3307290077015, 0,                 !- X,Y,Z Vertex 3 {m}
  0, 15.3307290077015, 4;                 !- X,Y,Z Vertex 4 {m}

OS:Surface,
  {128e2d76-6474-4838-95fe-4af444fc6677}, !- Handle
  Surface 28,                             !- Name
  Wall,                                   !- Surface Type
  ,                                       !- Construction Name