
OS:Version,
  {4bc9e998-0056-47b2-83ba-869fe80671f1}, !- Handle
  0.10.0;                                 !- Version Identifier

OS:BuildingStory,
  {c6c96cb7-b5f0-4a32-a76a-63d02a1ceaa8}, !- Handle
  Story 1,                                !- Name
  0,                                      !- Nominal Z Coordinate {m}
  4,                                      !- Nominal Floor to Floor Height {m}
  ,                                       !- Default Construction Set Name
  ,                                       !- Default Schedule Set Name
  ;                                       !- Group Rendering Name

OS:Space,
  {e6715c05-3822-489f-83ae-8397673ec4a5}, !- Handle
  Story 1 West Perimeter Space,           !- Name
  ,                                       !- Space Type Name
  ,                                       !- Default Construction Set Name
  ,                                       !- Default Schedule Set Name
  -0,                                     !- Direction of Relative North {deg}
  0,                                      !- X Origin {m}
  0,                                      !- Y Origin {m}
  0,                                      !- Z Origin {m}
  {c6c96cb7-b5f0-4a32-a76a-63d02a1ceaa8}, !- Building Story Name
  {593bdf03-94f7-4694-9267-4024a5264f0a}; !- Thermal Zone Name

OS:Surface,
  {fcf3ddbc-4cff-40b4-be3f-6943b0d21371}, !- Handle
  Surface 1,                              !- Name
  Floor,                                  !- Surface Type
  ,                                       !- Construction Name
  {e6715c05-3822-489f-83ae-8397673ec4a5}, !- Space Name
  Ground,                                 !- Outside Boundary Condition
  ,                                       !- Outside Boundary Condition Object
  NoSun,                                  !- Sun Exposure
  NoWind,                                 !- Wind Exposure
  ,                                       !- View Factor to Ground
  ,                                       !- Number of Vertices
  0, 0, 0,                                !- X,Y,Z Vertex 1 {m}
  0, 19.94993734326, 0,                   !- X,Y,Z Vertex 2 {m}
  3, 16.94993734326, 0,                   !- X,Y,Z Vertex 3 {m}
  3, 3, 0;                                !- X,Y,Z Vertex 4 {m}

OS:Surface,
  {a444b938-c7d9-48f7-94f3-d105843ff99a}, !- Handle
  Surface 2,                              !- Name
  Wall,                                   !- Surface Type
  ,                                       !- Construction Name
  {e6715c05-3822-489f-83ae-8397673ec4a5}, !- Space Name
  Outdoors,                               !- Outside Boundary Condition
  ,                                       !- Outside Boundary Condition Object
  SunExposed,                             !- Sun Exposure
  WindExposed,                            !- Wind Exposure
  ,                                       !- View Factor to Ground
  ,                                       !- Number of Vertices
  0, 19.94993734326, 4,                   !- X,Y,Z Vertex 1 {m}
  0, 19.94993734326, 0,                   !- X,Y,Z Vertex 2 {m}
  0, 0, 0,                                !- X,Y,Z Vertex 3 {m}
  0, 0, 4;                                !- X,Y,Z Vertex 4 {m}

OS:Surface,
  {0ee26698-b451-457b-be6c-d1a2e4ce374c}, !- Handle
  Surface 3,                              !- Name
  Wall,                                   !- Surface Type
  ,                                       !- Construction Name
  {e6715c05-3822-489f-83ae-8397673ec4a5}, !- Space Name
  Surface,                                !- Outside Boundary Condition
  {2c7f90b9-e4a7-4383-87fd-7010fecc7025}, !- Outside Boundary Condition Object
  NoSun,                                  !- Sun Exposure
  NoWind,                                 !- Wind Exposure
  ,                                       !- View Factor to Ground
  ,                                       !- Number of Vertices
  3, 16.94993734326, 4,                   !- X,Y,Z Vertex 1 {m}
  3, 16.94993734326, 0,                   !- X,Y,Z Vertex 2 {m}
  0, 19.94993734326, 0,                   !- X,Y,Z Vertex 3 {m}
  0, 19.94993734326, 4;                   !- X,Y,Z Vertex 4 {m}

OS:Surface,
  {f66c11ba-0949-4fb6-94b2-dcc9a135d8f9}, !- Handle
  Surface 4,                              !- Name
  Wall,                                   !- Surface Type
  ,                                       !- Construction Name
  {e6715c05-3822-489f-83ae-8397673ec4a5}, !- Space Name
  Surface,                                !- Outside Boundary Condition
  {97b7f085-cedc-4a39-88ea-4e0e25437c58}, !- Outside Boundary Condition Object
  NoSun,                                  !- Sun Exposure
  NoWind,                                 !- Wind Exposure
  ,                                       !- View Factor to Ground
  ,                                       !- Number of Vertices
  3, 3, 4,                                !- X,Y,Z Vertex 1 {m}
  3, 3, 0,                                !- X,Y,Z Vertex 2 {m}
  3, 16.94993734326, 0,                   !- X,Y,Z Vertex 3 {m}
  3, 16.94993734326, 4;                   !- X,Y,Z Vertex 4 {m}

OS:Surface,
  {76e2eb91-8e2e-4ef4-98de-8709e8374115}, !- Handle
  Surface 5,                              !- Name
  Wall,                                   !- Surface Type
  ,                                       !- Construction Name
  {e6715c05-3822-489f-83ae-8397673ec4a5}, !- Space Name
  Surface,                                !- Outside Boundary Condition
  {5ee78161-80f7-4230-bc17-691614a08816}, !- Outside Boundary Condition Object
  NoSun,                                  !- Sun Exposure
  NoWind,                                 !- Wind Exposure
  ,                                       !- View Factor to Ground
  ,                                       !- Number of Vertices
  0, 0, 4,                                !- X,Y,Z Vertex 1 {m}
  0, 0, 0,                                !- X,Y,Z Vertex 2 {m}
  3, 3, 0,                                !- X,Y,Z Vertex 3 {m}
  3, 3, 4;                                !- X,Y,Z Vertex 4 {m}

OS:Surface,
  {11c6786e-0848-426e-9cca-1881cb9ae20a}, !- Handle
  Surface 6,                              !- Name
  RoofCeiling,                            !- Surface Type
  ,                                       !- Construction Name
  {e6715c05-3822-489f-83ae-8397673ec4a5}, !- Space Name
  Outdoors,                               !- Outside Boundary Condition
  ,                                       !- Outside Boundary Condition Object
  SunExposed,                             !- Sun Exposure
  WindExposed,                            !- Wind Exposure
  ,                                       !- View Factor to Ground
  ,                                       !- Number of Vertices
  3, 3, 4,                                !- X,Y,Z Vertex 1 {m}
  3, 16.94993734326, 4,                   !- X,Y,Z Vertex 2 {m}
  0, 19.94993734326, 4,                   !- X,Y,Z Vertex 3 {m}
  0, 0, 4;                                !- X,Y,Z Vertex 4 {m}

OS:Space,
  {766dd2cb-0ede-499a-b920-fd5f14cf5055}, !- Handle
  Story 1 North Perimeter Space,          !- Name
  ,                                       !- Space Type Name
  ,                                       !- Default Construction Set Name
  ,                                       !- Default Schedule Set Name
  -0,                                     !- Direction of Relative North {deg}
  3,                                      !- X Origin {m}
  16.94993734326,                         !- Y Origin {m}
  0,                                      !- Z Origin {m}
  {c6c96cb7-b5f0-4a32-a76a-63d02a1ceaa8}, !- Building Story Name
  {a867c89b-6032-488e-8f46-8b7b53697ff7}; !- Thermal Zone Name

OS:Surface,
  {55ad8c14-c697-4ee9-b1c4-68e710154207}, !- Handle
  Surface 7,                              !- Name
  Floor,                                  !- Surface Type
  ,                                       !- Construction Name
  {766dd2cb-0ede-499a-b920-fd5f14cf5055}, !- Space Name
  Ground,                                 !- Outside Boundary Condition
  ,                                       !- Outside Boundary Condition Object
  NoSun,                                  !- Sun Exposure
  NoWind,                                 !- Wind Exposure
  ,                                       !- View Factor to Ground
  ,                                       !- Number of Vertices
  -3, 3, 0,                               !- X,Y,Z Vertex 1 {m}
  16.94993734326, 3, 0,                   !- X,Y,Z Vertex 2 {m}
  13.94993734326, -3.5527136788005e-15, 0, !- X,Y,Z Vertex 3 {m}
  0, -3.5527136788005e-15, 0;             !- X,Y,Z Vertex 4 {m}

OS:Surface,
  {b03503ce-f5cd-4085-bea7-dcf50b626263}, !- Handle
  Surface 8,                              !- Name
  Wall,                                   !- Surface Type
  ,                                       !- Construction Name
  {766dd2cb-0ede-499a-b920-fd5f14cf5055}, !- Space Name
  Outdoors,                               !- Outside Boundary Condition
  ,                                       !- Outside Boundary Condition Object
  SunExposed,                             !- Sun Exposure
  WindExposed,                            !- Wind Exposure
  ,                                       !- View Factor to Ground
  ,                                       !- Number of Vertices
  16.94993734326, 3, 4,                   !- X,Y,Z Vertex 1 {m}
  16.94993734326, 3, 0,                   !- X,Y,Z Vertex 2 {m}
  -3, 3, 0,                               !- X,Y,Z Vertex 3 {m}
  -3, 3, 4;                               !- X,Y,Z Vertex 4 {m}

OS:Surface,
  {72cc8378-4456-4be8-8781-e5c2f5598a80}, !- Handle
  Surface 9,                              !- Name
  Wall,                                   !- Surface Type
  ,                                       !- Construction Name
  {766dd2cb-0ede-499a-b920-fd5f14cf5055}, !- Space Name
  Surface,                                !- Outside Boundary Condition
  {61d6cb36-b22a-4bfd-900a-7a3f5c700555}, !- Outside Boundary Condition Object
  NoSun,                                  !- Sun Exposure
  NoWind,                                 !- Wind Exposure
  ,                                       !- View Factor to Ground
  ,                                       !- Number of Vertices
  13.94993734326, -3.5527136788005e-15, 4, !- X,Y,Z Vertex 1 {m}
  13.94993734326, -3.5527136788005e-15, 0, !- X,Y,Z Vertex 2 {m}
  16.94993734326, 3, 0,                   !- X,Y,Z Vertex 3 {m}
  16.94993734326, 3, 4;                   !- X,Y,Z Vertex 4 {m}

OS:Surface,
  {ee523124-84b2-4194-8492-4b9df75454a1}, !- Handle
  Surface 10,                             !- Name
  Wall,                                   !- Surface Type
  ,                                       !- Construction Name
  {766dd2cb-0ede-499a-b920-fd5f14cf5055}, !- Space Name
  Surface,                                !- Outside Boundary Condition
  {651293f8-d3f7-4be2-be14-e9c88d746d65}, !- Outside Boundary Condition Object
  NoSun,                                  !- Sun Exposure
  NoWind,                                 !- Wind Exposure
  ,                                       !- View Factor to Ground
  ,                                       !- Number of Vertices
  0, -3.5527136788005e-15, 4,             !- X,Y,Z Vertex 1 {m}
  0, -3.5527136788005e-15, 0,             !- X,Y,Z Vertex 2 {m}
  13.94993734326, -3.5527136788005e-15, 0, !- X,Y,Z Vertex 3 {m}
  13.94993734326, -3.5527136788005e-15, 4; !- X,Y,Z Vertex 4 {m}

OS:Surface,
  {2c7f90b9-e4a7-4383-87fd-7010fecc7025}, !- Handle
  Surface 11,                             !- Name
  Wall,                                   !- Surface Type
  ,                                       !- Construction Name
  {766dd2cb-0ede-499a-b920-fd5f14cf5055}, !- Space Name
  Surface,                                !- Outside Boundary Condition
  {0ee26698-b451-457b-be6c-d1a2e4ce374c}, !- Outside Boundary Condition Object
  NoSun,                                  !- Sun Exposure
  NoWind,                                 !- Wind Exposure
  ,                                       !- View Factor to Ground
  ,                                       !- Number of Vertices
  -3, 3, 4,                               !- X,Y,Z Vertex 1 {m}
  -3, 3, 0,                               !- X,Y,Z Vertex 2 {m}
  0, -3.5527136788005e-15, 0,             !- X,Y,Z Vertex 3 {m}
  0, -3.5527136788005e-15, 4;             !- X,Y,Z Vertex 4 {m}

OS:Surface,
  {aa9485e4-c424-400b-8124-c2bb5ea1cea0}, !- Handle
  Surface 12,                             !- Name
  RoofCeiling,                            !- Surface Type
  ,                                       !- Construction Name
  {766dd2cb-0ede-499a-b920-fd5f14cf5055}, !- Space Name
  Outdoors,                               !- Outside Boundary Condition
  ,                                       !- Outside Boundary Condition Object
  SunExposed,                             !- Sun Exposure
  WindExposed,                            !- Wind Exposure
  ,                                       !- View Factor to Ground
  ,                                       !- Number of Vertices
  0, -3.5527136788005e-15, 4,             !- X,Y,Z Vertex 1 {m}
  13.94993734326, -3.5527136788005e-15, 4, !- X,Y,Z Vertex 2 {m}
  16.94993734326, 3, 4,                   !- X,Y,Z Vertex 3 {m}
  -3, 3, 4;                               !- X,Y,Z Vertex 4 {m}

OS:Space,
  {fd959061-f107-4817-88ad-830fc8b4adac}, !- Handle
  Story 1 East Perimeter Space,           !- Name
  ,                                       !- Space Type Name
  ,                                       !- Default Construction Set Name
  ,                                       !- Default Schedule Set Name
  -0,                                     !- Direction of Relative North {deg}
  16.94993734326,                         !- X Origin {m}
  3,                                      !- Y Origin {m}
  0,                                      !- Z Origin {m}
  {c6c96cb7-b5f0-4a32-a76a-63d02a1ceaa8}, !- Building Story Name
  {b0ff02b0-602b-44cc-b639-792a0362595a}; !- Thermal Zone Name

OS:Surface,
  {6e868950-d0c3-4643-ab90-3c06952e7dfc}, !- Handle
  Surface 13,                             !- Name
  Floor,                                  !- Surface Type
  ,                                       !- Construction Name
  {fd959061-f107-4817-88ad-830fc8b4adac}, !- Space Name
  Ground,                                 !- Outside Boundary Condition
  ,                                       !- Outside Boundary Condition Object
  NoSun,                                  !- Sun Exposure
  NoWind,                                 !- Wind Exposure
  ,                                       !- View Factor to Ground
  ,                                       !- Number of Vertices
  3, 16.94993734326, 0,                   !- X,Y,Z Vertex 1 {m}
  3, -3, 0,                               !- X,Y,Z Vertex 2 {m}
  -3.5527136788005e-15, 0, 0,             !- X,Y,Z Vertex 3 {m}
  -3.5527136788005e-15, 13.94993734326, 0; !- X,Y,Z Vertex 4 {m}

OS:Surface,
  {af207e9e-e19e-4964-802e-9239c926dd01}, !- Handle
  Surface 14,                             !- Name
  Wall,                                   !- Surface Type
  ,                                       !- Construction Name
  {fd959061-f107-4817-88ad-830fc8b4adac}, !- Space Name
  Outdoors,                               !- Outside Boundary Condition
  ,                                       !- Outside Boundary Condition Object
  SunExposed,                             !- Sun Exposure
  WindExposed,                            !- Wind Exposure
  ,                                       !- View Factor to Ground
  ,                                       !- Number of Vertices
  3, -3, 4,                               !- X,Y,Z Vertex 1 {m}
  3, -3, 0,                               !- X,Y,Z Vertex 2 {m}
  3, 16.94993734326, 0,                   !- X,Y,Z Vertex 3 {m}
  3, 16.94993734326, 4;                   !- X,Y,Z Vertex 4 {m}

OS:Surface,
  {42bdbad5-8fe1-4ab0-9b25-64d9bb79c010}, !- Handle
  Surface 15,                             !- Name
  Wall,                                   !- Surface Type
  ,                                       !- Construction Name
  {fd959061-f107-4817-88ad-830fc8b4adac}, !- Space Name
  Surface,                                !- Outside Boundary Condition
  {b24a8366-023e-4831-989a-890afeb7db24}, !- Outside Boundary Condition Object
  NoSun,                                  !- Sun Exposure
  NoWind,                                 !- Wind Exposure
  ,                                       !- View Factor to Ground
  ,                                       !- Number of Vertices
  -3.5527136788005e-15, 0, 4,             !- X,Y,Z Vertex 1 {m}
  -3.5527136788005e-15, 0, 0,             !- X,Y,Z Vertex 2 {m}
  3, -3, 0,                               !- X,Y,Z Vertex 3 {m}
  3, -3, 4;                               !- X,Y,Z Vertex 4 {m}

OS:Surface,
  {109f959f-fed4-4a52-a2b4-9a3fb840d00e}, !- Handle
  Surface 16,                             !- Name
  Wall,                                   !- Surface Type
  ,                                       !- Construction Name
  {fd959061-f107-4817-88ad-830fc8b4adac}, !- Space Name
  Surface,                                !- Outside Boundary Condition
  {15f2518a-984f-4c31-9a38-4ac2caa23400}, !- Outside Boundary Condition Object
  NoSun,                                  !- Sun Exposure
  NoWind,                                 !- Wind Exposure
  ,                                       !- View Factor to Ground
  ,                                       !- Number of Vertices
  -3.5527136788005e-15, 13.94993734326, 4, !- X,Y,Z Vertex 1 {m}
  -3.5527136788005e-15, 13.94993734326, 0, !- X,Y,Z Vertex 2 {m}
  -3.5527136788005e-15, 0, 0,             !- X,Y,Z Vertex 3 {m}
  -3.5527136788005e-15, 0, 4;             !- X,Y,Z Vertex 4 {m}

OS:Surface,
  {61d6cb36-b22a-4bfd-900a-7a3f5c700555}, !- Handle
  Surface 17,                             !- Name
  Wall,                                   !- Surface Type
  ,                                       !- Construction Name
  {fd959061-f107-4817-88ad-830fc8b4adac}, !- Space Name
  Surface,                                !- Outside Boundary Condition
  {72cc8378-4456-4be8-8781-e5c2f5598a80}, !- Outside Boundary Condition Object
  NoSun,                                  !- Sun Exposure
  NoWind,                                 !- Wind Exposure
  ,                                       !- View Factor to Ground
  ,                                       !- Number of Vertices
  3, 16.94993734326, 4,                   !- X,Y,Z Vertex 1 {m}
  3, 16.94993734326, 0,                   !- X,Y,Z Vertex 2 {m}
  -3.5527136788005e-15, 13.94993734326, 0, !- X,Y,Z Vertex 3 {m}
  -3.5527136788005e-15, 13.94993734326, 4; !- X,Y,Z Vertex 4 {m}

OS:Surface,
  {2cc9ce94-7690-41dc-9b62-afd66484a66a}, !- Handle
  Surface 18,                             !- Name
  RoofCeiling,                            !- Surface Type
  ,                                       !- Construction Name
  {fd959061-f107-4817-88ad-830fc8b4adac}, !- Space Name
  Outdoors,                               !- Outside Boundary Condition
  ,                                       !- Outside Boundary Condition Object
  SunExposed,                             !- Sun Exposure
  WindExposed,                            !- Wind Exposure
  ,                                       !- View Factor to Ground
  ,                                       !- Number of Vertices
  -3.5527136788005e-15, 13.94993734326, 4, !- X,Y,Z Vertex 1 {m}
  -3.5527136788005e-15, 0, 4,             !- X,Y,Z Vertex 2 {m}
  3, -3, 4,                               !- X,Y,Z Vertex 3 {m}
  3, 16.94993734326, 4;                   !- X,Y,Z Vertex 4 {m}

OS:Space,
  {67969b46-79eb-4213-84d2-d829b4237d6b}, !- Handle
  Story 1 South Perimeter Space,          !- Name
  ,                                       !- Space Type Name
  ,                                       !- Default Construction Set Name
  ,                                       !- Default Schedule Set Name
  -0,                                     !- Direction of Relative North {deg}
  0,                                      !- X Origin {m}
  0,                                      !- Y Origin {m}
  0,                                      !- Z Origin {m}
  {c6c96cb7-b5f0-4a32-a76a-63d02a1ceaa8}, !- Building Story Name
  {13aaa5b8-cbc2-497d-8963-54b9333f06b3}; !- Thermal Zone Name

OS:Surface,
  {d517a0d9-a4b7-46f1-aeef-723ba2d885ee}, !- Handle
  Surface 19,                             !- Name
  Floor,                                  !- Surface Type
  ,                                       !- Construction Name
  {67969b46-79eb-4213-84d2-d829b4237d6b}, !- Space Name
  Ground,                                 !- Outside Boundary Condition
  ,                                       !- Outside Boundary Condition Object
  NoSun,                                  !- Sun Exposure
  NoWind,                                 !- Wind Exposure
  ,                                       !- View Factor to Ground
  ,                                       !- Number of Vertices
  19.94993734326, 0, 0,                   !- X,Y,Z Vertex 1 {m}
  0, 0, 0,                                !- X,Y,Z Vertex 2 {m}
  3, 3, 0,                                !- X,Y,Z Vertex 3 {m}
  16.94993734326, 3, 0;                   !- X,Y,Z Vertex 4 {m}

OS:Surface,
  {d9750d4e-0479-4a3c-a9a3-5d18b2260c00}, !- Handle
  Surface 20,                             !- Name
  Wall,                                   !- Surface Type
  ,                                       !- Construction Name
  {67969b46-79eb-4213-84d2-d829b4237d6b}, !- Space Name
  Outdoors,                               !- Outside Boundary Condition
  ,                                       !- Outside Boundary Condition Object
  SunExposed,                             !- Sun Exposure
  WindExposed,                            !- Wind Exposure
  ,                                       !- View Factor to Ground
  ,                                       !- Number of Vertices
  0, 0, 4,                                !- X,Y,Z Vertex 1 {m}
  0, 0, 0,                                !- X,Y,Z Vertex 2 {m}
  19.94993734326, 0, 0,                   !- X,Y,Z Vertex 3 {m}
  19.94993734326, 0, 4;                   !- X,Y,Z Vertex 4 {m}

OS:Surface,
  {5ee78161-80f7-4230-bc17-691614a08816}, !- Handle
  Surface 21,                             !- Name
  Wall,                                   !- Surface Type
  ,                                       !- Construction Name
  {67969b46-79eb-4213-84d2-d829b4237d6b}, !- Space Name
  Surface,                                !- Outside Boundary Condition
  {76e2eb91-8e2e-4ef4-98de-8709e8374115}, !- Outside Boundary Condition Object
  NoSun,                                  !- Sun Exposure
  NoWind,                                 !- Wind Exposure
  ,                                       !- View Factor to Ground
  ,                                       !- Number of Vertices
  3, 3, 4,                                !- X,Y,Z Vertex 1 {m}
  3, 3, 0,                                !- X,Y,Z Vertex 2 {m}
  0, 0, 0,                                !- X,Y,Z Vertex 3 {m}
  0, 0, 4;                                !- X,Y,Z Vertex 4 {m}

OS:Surface,
  {65b40d07-e08a-4c50-a149-44bbe5d40d85}, !- Handle
  Surface 22,                             !- Name
  Wall,                                   !- Surface Type
  ,                                       !- Construction Name
  {67969b46-79eb-4213-84d2-d829b4237d6b}, !- Space Name
  Surface,                                !- Outside Boundary Condition
  {a1a5c455-0d4a-4fe5-b7dd-52b98d635fa2}, !- Outside Boundary Condition Object
  NoSun,                                  !- Sun Exposure
  NoWind,                                 !- Wind Exposure
  ,                                       !- View Factor to Ground
  ,                                       !- Number of Vertices
  16.94993734326, 3, 4,                   !- X,Y,Z Vertex 1 {m}
  16.94993734326, 3, 0,                   !- X,Y,Z Vertex 2 {m}
  3, 3, 0,                                !- X,Y,Z Vertex 3 {m}
  3, 3, 4;                                !- X,Y,Z Vertex 4 {m}

OS:Surface,
  {b24a8366-023e-4831-989a-890afeb7db24}, !- Handle
  Surface 23,                             !- Name
  Wall,                                   !- Surface Type
  ,                                       !- Construction Name
  {67969b46-79eb-4213-84d2-d829b4237d6b}, !- Space Name
  Surface,                                !- Outside Boundary Condition
  {42bdbad5-8fe1-4ab0-9b25-64d9bb79c010}, !- Outside Boundary Condition Object
  NoSun,                                  !- Sun Exposure
  NoWind,                                 !- Wind Exposure
  ,                                       !- View Factor to Ground
  ,                                       !- Number of Vertices
  19.94993734326, 0, 4,                   !- X,Y,Z Vertex 1 {m}
  19.94993734326, 0, 0,                   !- X,Y,Z Vertex 2 {m}
  16.94993734326, 3, 0,                   !- X,Y,Z Vertex 3 {m}
  16.94993734326, 3, 4;                   !- X,Y,Z Vertex 4 {m}

OS:Surface,
  {0dfd0650-480c-4c51-9b82-ebb7c10e5367}, !- Handle
  Surface 24,                             !- Name
  RoofCeiling,                            !- Surface Type
  ,                                       !- Construction Name
  {67969b46-79eb-4213-84d2-d829b4237d6b}, !- Space Name
  Outdoors,                               !- Outside Boundary Condition
  ,                                       !- Outside Boundary Condition Object
  SunExposed,                             !- Sun Exposure
  WindExposed,                            !- Wind Exposure
  ,                                       !- View Factor to Ground
  ,                                       !- Number of Vertices
  16.94993734326, 3, 4,                   !- X,Y,Z Vertex 1 {m}
  3, 3, 4,                                !- X,Y,Z Vertex 2 {m}
  0, 0, 4,                                !- X,Y,Z Vertex 3 {m}
  19.94993734326, 0, 4;                   !- X,Y,Z Vertex 4 {m}

OS:Space,
  {9f509218-3fdb-46ef-a67e-eecdd8e73581}, !- Handle
  Story 1 Core Space,                     !- Name
  ,                                       !- Space Type Name
  ,                                       !- Default Construction Set Name
  ,                                       !- Default Schedule Set Name
  -0,                                     !- Direction of Relative North {deg}
  3,                                      !- X Origin {m}
  3,                                      !- Y Origin {m}
  0,                                      !- Z Origin {m}
  {c6c96cb7-b5f0-4a32-a76a-63d02a1ceaa8}, !- Building Story Name
  {894e4710-ccfe-418d-b5c2-2fdf923e8ff7}; !- Thermal Zone Name

OS:Surface,
  {d62fc967-323a-47bf-ac21-73c70c531898}, !- Handle
  Surface 25,                             !- Name
  Floor,                                  !- Surface Type
  ,                                       !- Construction Name
  {9f509218-3fdb-46ef-a67e-eecdd8e73581}, !- Space Name
  Ground,                                 !- Outside Boundary Condition
  ,                                       !- Outside Boundary Condition Object
  NoSun,                                  !- Sun Exposure
  NoWind,                                 !- Wind Exposure
  ,                                       !- View Factor to Ground
  ,                                       !- Number of Vertices
  0, 0, 0,                                !- X,Y,Z Vertex 1 {m}
  0, 13.94993734326, 0,                   !- X,Y,Z Vertex 2 {m}
  13.94993734326, 13.94993734326, 0,      !- X,Y,Z Vertex 3 {m}
  13.94993734326, 0, 0;                   !- X,Y,Z Vertex 4 {m}

OS:Surface,
  {97b7f085-cedc-4a39-88ea-4e0e25437c58}, !- Handle
  Surface 26,                             !- Name
  Wall,                                   !- Surface Type
  ,                                       !- Construction Name
  {9f509218-3fdb-46ef-a67e-eecdd8e73581}, !- Space Name
  Surface,                                !- Outside Boundary Condition
  {f66c11ba-0949-4fb6-94b2-dcc9a135d8f9}, !- Outside Boundary Condition Object
  NoSun,                                  !- Sun Exposure
  NoWind,                                 !- Wind Exposure
  ,                                       !- View Factor to Ground
  ,                                       !- Number of Vertices
  0, 13.94993734326, 4,                   !- X,Y,Z Vertex 1 {m}
  0, 13.94993734326, 0,                   !- X,Y,Z Vertex 2 {m}
  0, 0, 0,                                !- X,Y,Z Vertex 3 {m}
  0, 0, 4;                                !- X,Y,Z Vertex 4 {m}

OS:Surface,
  {651293f8-d3f7-4be2-be14-e9c88d746d65}, !- Handle
  Surface 27,                             !- Name
  Wall,                                   !- Surface Type
  ,                                       !- Construction Name
  {9f509218-3fdb-46ef-a67e-eecdd8e73581}, !- Space Name
  Surface,                                !- Outside Boundary Condition
  {ee523124-84b2-4194-8492-4b9df75454a1}, !- Outside Boundary Condition Object
  NoSun,                                  !- Sun Exposure
  NoWind,                                 !- Wind Exposure
  ,                                       !- View Factor to Ground
  ,                                       !- Number of Vertices
  13.94993734326, 13.94993734326, 4,      !- X,Y,Z Vertex 1 {m}
  13.94993734326, 13.94993734326, 0,      !- X,Y,Z Vertex 2 {m}
  0, 13.94993734326, 0,                   !- X,Y,Z Vertex 3 {m}
  0, 13.94993734326, 4;                   !- X,Y,Z Vertex 4 {m}

OS:Surface,
  {15f2518a-984f-4c31-9a38-4ac2caa23400}, !- Handle
  Surface 28,                             !- Name
  Wall,                                   !- Surface Type
  ,                                       !- Construction Name
  {9f509218-3fdb-46ef-a67e-eecdd8e73581}, !- Space Name