
OS:Version,
  {691a747b-cc85-4547-afae-1e3c628bab9b}, !- Handle
  0.10.0;                                 !- Version Identifier

OS:Schedule:Ruleset,
  {e56ed723-5c00-47f9-87fc-a6c63372e6eb}, !- Handle
  Always_On,                              !- Name
  {4552118b-88b4-4123-8398-9eba1f1b6103}, !- Schedule Type Limits Name
  {165ed581-80b7-42c3-bf28-11c94d1aa2d7}, !- Default Day Schedule Name
  {92a92031-ed14-4689-a7c3-9db1fed9aa56}, !- Summer Design Day Schedule Name
  {ec0c07ad-d12c-4bf0-b407-1aea402914f8}; !- Winter Design Day Schedule Name

OS:Schedule:Day,
  {165ed581-80b7-42c3-bf28-11c94d1aa2d7}, !- Handle
  Always_On_Default,                      !- Name
  {4552118b-88b4-4123-8398-9eba1f1b6103}, !- Schedule Type Limits Name
  ,                                       !- Interpolate to Timestep
  24,                                     !- Hour 1
  0,                                      !- Minute 1
  1;                                      !- Value Until Time 1

OS:Schedule:Day,
  {92a92031-ed14-4689-a7c3-9db1fed9aa56}, !- Handle
  Always_On_Summer_Design_Day,            !- Name
  {4552118b-88b4-4123-8398-9eba1f1b6103}, !- Schedule Type Limits Name
  ,                                       !- Interpolate to Timestep
  24,                                     !- Hour 1
  0,                                      !- Minute 1
  1;                                      !- Value Until Time 1

OS:Schedule:Day,
  {ec0c07ad-d12c-4bf0-b407-1aea402914f8}, !- Handle
  Always_On_Winter_Design_Day,            !- Name
  {4552118b-88b4-4123-8398-9eba1f1b6103}, !- Schedule Type Limits Name
  ,                                       !- Interpolate to Timestep
  24,                                     !- Hour 1
  0,                                      !- Minute 1
  1;                                      !- Value Until Time 1

OS:Schedule:Ruleset,
  {6939a4d8-eff7-4278-8def-16bb88b7be31}, !- Handle
  Deck_Temperature,                       !- Name
  {4ad1e3f9-808e-4045-84a2-b6b3a3318390}, !- Schedule Type Limits Name
  {47fae711-bb1a-4a22-99be-7bee725cdbdd}, !- Default Day Schedule Name
  {bfec1ba0-b5ae-4a4a-9e1f-fa68286cdec4}, !- Summer Design Day Schedule Name
  {725c2364-1a5e-4291-a144-d52d8e881338}; !- Winter Design Day Schedule Name

OS:Schedule:Day,
  {47fae711-bb1a-4a22-99be-7bee725cdbdd}, !- Handle
  Deck_Temperature_Default,               !- Name
  {4ad1e3f9-808e-4045-84a2-b6b3a3318390}, !- Schedule Type Limits Name
  ,                                       !- Interpolate to Timestep
  24,                                     !- Hour 1
  0,                                      !- Minute 1
  12.8;                                   !- Value Until Time 1

OS:Schedule:Day,
  {bfec1ba0-b5ae-4a4a-9e1f-fa68286cdec4}, !- Handle
  Deck_Temperature_Summer_Design_Day,     !- Name
  {4ad1e3f9-808e-4045-84a2-b6b3a3318390}, !- Schedule Type Limits Name
  ,                                       !- Interpolate to Timestep
  24,                                     !- Hour 1
  0,                                      !- Minute 1
  12.8;                                   !- Value Until Time 1

OS:Schedule:Day,
  {725c2364-1a5e-4291-a144-d52d8e881338}, !- Handle
  Deck_Temperature_Winter_Design_Day,     !- Name
  {4ad1e3f9-808e-4045-84a2-b6b3a3318390}, !- Schedule Type Limits Name
  ,                                       !- Interpolate to Timestep
  24,                                     !- Hour 1
  0,                                      !- Minute 1
  12.8;                                   !- Value Until Time 1

OS:Schedule:Ruleset,
  {97a1ade1-673a-4dfc-b5d0-0719a74644f3}, !- Handle
  Hot_Water_Temperature,                  !- Name
  {30057293-8c2a-461f-9648-1f51dfe31a39}, !- Schedule Type Limits Name
  {47e5b358-f511-424c-b844-adc381b2ec82}, !- Default Day Schedule Name
  {26beab4a-f3b1-4303-84a7-6f1b860d816e}, !- Summer Design Day Schedule Name
  {115f1c64-0cd7-4d22-9c8a-a59a1d5d001b}; !- Winter Design Day Schedule Name

OS:Schedule:Day,
  {47e5b358-f511-424c-b844-adc381b2ec82}, !- Handle
  Hot_Water_Temperature_Default,          !- Name
  {30057293-8c2a-461f-9648-1f51dfe31a39}, !- Schedule Type Limits Name
  ,                                       !- Interpolate to Timestep
  24,                                     !- Hour 1
  0,                                      !- Minute 1
  67;                                     !- Value Until Time 1

OS:Schedule:Day,
  {26beab4a-f3b1-4303-84a7-6f1b860d816e}, !- Handle
  Hot_Water_Temperature_Summer_Design_Day, !- Name
  {30057293-8c2a-461f-9648-1f51dfe31a39}, !- Schedule Type Limits Name
  ,                                       !- Interpolate to Timestep
  24,                                     !- Hour 1
  0,                                      !- Minute 1
  67;                                     !- Value Until Time 1

OS:Schedule:Day,
  {115f1c64-0cd7-4d22-9c8a-a59a1d5d001b}, !- Handle
  Hot_Water_Temperature_Winter_Design_Day, !- Name
  {30057293-8c2a-461f-9648-1f51dfe31a39}, !- Schedule Type Limits Name
  ,                                       !- Interpolate to Timestep
  24,                                     !- Hour 1
  0,                                      !- Minute 1
  67;                                     !- Value Until Time 1

OS:Schedule:Ruleset,
  {d25b2255-108a-401c-b0db-05eedea7a025}, !- Handle
  Chilled_Water_Temperature,              !- Name
  ,                                       !- Schedule Type Limits Name
  {d29fac2f-48d0-4831-b3d7-cb7d4c6047ea}, !- Default Day Schedule Name
  {4c2b4dd9-7c17-4c7c-b6fe-592af8221918}, !- Summer Design Day Schedule Name
  {71185f96-fd08-4ae7-b3bc-03b0a0fde2a0}; !- Winter Design Day Schedule Name

OS:Schedule:Day,
  {d29fac2f-48d0-4831-b3d7-cb7d4c6047ea}, !- Handle
  Chilled_Water_Temperature_Default,      !- Name
  ,                                       !- Schedule Type Limits Name
  ,                                       !- Interpolate to Timestep
  24,                                     !- Hour 1
  0,                                      !- Minute 1
  6.7;                                    !- Value Until Time 1

OS:Schedule:Day,
  {4c2b4dd9-7c17-4c7c-b6fe-592af8221918}, !- Handle
  Chilled_Water_Temperature_Summer_Design_Day, !- Name
  ,                                       !- Schedule Type Limits Name
  ,                                       !- Interpolate to Timestep
  24,                                     !- Hour 1
  0,                                      !- Minute 1
  6.7;                                    !- Value Until Time 1

OS:Schedule:Day,
  {71185f96-fd08-4ae7-b3bc-03b0a0fde2a0}, !- Handle
  Chilled_Water_Temperature_Winter_Design_Day, !- Name
  ,                                       !- Schedule Type Limits Name
  ,                                       !- Interpolate to Timestep
  24,                                     !- Hour 1
  0,                                      !- Minute 1
  6.7;                                    !- Value Until Time 1

OS:AirLoopHVAC,
  {163bded4-d348-4aab-9e91-e1d39d6a9092}, !- Handle
  Air Loop HVAC 1,                        !- Name
  ,                                       !- Controller List Name
  ,                                       !- Availability Manager List Name
  AutoSize,                               !- Design Supply Air Flow Rate {m3/s}
  ,                                       !- Branch List Name
  ,                                       !- Connector List Name
  {851cac91-db52-46f7-aa97-3831afa8cfa3}, !- Supply Side Inlet Node Name
  {9eb6e5ec-0045-47a8-8b4d-2c2916f64bf9}, !- Demand Side Outlet Node Name
  {cd93370c-4069-4d0f-b80b-039ae86be31e}, !- Demand Side Inlet Node Names
  {57ee2818-9b43-4da2-90a0-8c4114b84c9e}; !- Supply Side Outlet Node Names

OS:Node,
  {ebf9d888-b59e-4f43-9fc7-39d283c48ed7}, !- Handle
  Node 1,                                 !- Name
  {851cac91-db52-46f7-aa97-3831afa8cfa3}, !- Inlet Port
  {14f9afd4-93b5-479e-ab73-4208b9d279ce}; !- Outlet Port

OS:Node,
  {898fd700-064c-4592-8528-1ead5b3d7f25}, !- Handle
  Node 2,                                 !- Name
  {35f81f0e-21e5-4309-8504-fa7dea886f6b}, !- Inlet Port
  {57ee2818-9b43-4da2-90a0-8c4114b84c9e}; !- Outlet Port

OS:Connection,
  {851cac91-db52-46f7-aa97-3831afa8cfa3}, !- Handle
  Connection 1,                           !- Name
  {163bded4-d348-4aab-9e91-e1d39d6a9092}, !- Source Object
  7,                                      !- Outlet Port
  {ebf9d888-b59e-4f43-9fc7-39d283c48ed7}, !- Target Object
  2;                                      !- Inlet Port

OS:Connection,
  {57ee2818-9b43-4da2-90a0-8c4114b84c9e}, !- Handle
  Connection 3,                           !- Name
  {898fd700-064c-4592-8528-1ead5b3d7f25}, !- Source Object
  3,                                      !- Outlet Port
  {163bded4-d348-4aab-9e91-e1d39d6a9092}, !- Target Object
  10;                                     !- Inlet Port

OS:Node,
  {bac4e5a6-e850-47d7-a68d-39c35f69e92c}, !- Handle
  Node 3,                                 !- Name
  {cd93370c-4069-4d0f-b80b-039ae86be31e}, !- Inlet Port
  {d38fc64d-54ee-485d-b291-93a78eac3f0f}; !- Outlet Port

OS:Node,
  {5fb58431-4c90-4ee4-b962-f6522ece0b1e}, !- Handle
  Node 4,                                 !- Name
  {3f581b9d-9bf6-426f-b881-8239188bebdc}, !- Inlet Port
  {9eb6e5ec-0045-47a8-8b4d-2c2916f64bf9}; !- Outlet Port

OS:Node,
  {16a43a0b-7635-4c99-90fd-65a85267f5df}, !- Handle
  Node 5,                                 !- Name
  {727d9c71-cc32-40a1-b97f-d6f3999737a1}, !- Inlet Port
  {ccea20f6-2baf-4de8-9e7b-301c40aac413}; !- Outlet Port

OS:Connection,
  {cd93370c-4069-4d0f-b80b-039ae86be31e}, !- Handle
  Connection 4,                           !- Name
  {163bded4-d348-4aab-9e91-e1d39d6a9092}, !- Source Object
  9,                                      !- Outlet Port
  {bac4e5a6-e850-47d7-a68d-39c35f69e92c}, !- Target Object
  2;                                      !- Inlet Port

OS:Connection,
  {9eb6e5ec-0045-47a8-8b4d-2c2916f64bf9}, !- Handle
  Connection 5,                           !- Name
  {5fb58431-4c90-4ee4-b962-f6522ece0b1e}, !- Source Object
  3,                                      !- Outlet Port
  {163bded4-d348-4aab-9e91-e1d39d6a9092}, !- Target Object
  8;                                      !- Inlet Port

OS:AirLoopHVAC:ZoneSplitter,
  {38e38e8b-89af-498e-b3f1-64551408f02b}, !- Handle
  Air Loop HVAC Zone Splitter 1,          !- Name
  {d38fc64d-54ee-485d-b291-93a78eac3f0f}, !- Inlet Node Name
  {4e2cc506-2bc2-4163-b08b-58c401018a09}; !- Outlet Node Name 1

OS:AirLoopHVAC:ZoneMixer,
  {eb95944b-5b7f-4007-a1e3-e4d51504d34e}, !- Handle
  Air Loop HVAC Zone Mixer 1,             !- Name
  {3f581b9d-9bf6-426f-b881-8239188bebdc}, !- Outlet Node Name
  {ccea20f6-2baf-4de8-9e7b-301c40aac413}; !- Inlet Node Name 1

OS:Connection,
  {d38fc64d-54ee-485d-b291-93a78eac3f0f}, !- Handle
  Connection 6,                           !- Name
  {bac4e5a6-e850-47d7-a68d-39c35f69e92c}, !- Source Object
  3,                                      !- Outlet Port
  {38e38e8b-89af-498e-b3f1-64551408f02b}, !- Target Object
  2;                                      !- Inlet Port

OS:Connection,
  {ccea20f6-2baf-4de8-9e7b-301c40aac413}, !- Handle
  Connection 8,                           !- Name
  {16a43a0b-7635-4c99-90fd-65a85267f5df}, !- Source Object
  3,                                      !- Outlet Port
  {eb95944b-5b7f-4007-a1e3-e4d51504d34e}, !- Target Object
  3;                                      !- Inlet Port

OS:Connection,
  {3f581b9d-9bf6-426f-b881-8239188bebdc}, !- Handle
  Connection 9,                           !- Name
  {eb95944b-5b7f-4007-a1e3-e4d51504d34e}, !- Source Object
  2,                                      !- Outlet Port
  {5fb58431-4c90-4ee4-b962-f6522ece0b1e}, !- Target Object
  2;                                      !- Inlet Port

OS:Sizing:System,
  {f0223964-d404-4f87-93c3-4bf4a52dc092}, !- Handle
  {163bded4-d348-4aab-9e91-e1d39d6a9092}, !- AirLoop Name
  Sensible,                               !- Type of Load to Size On
  Autosize,                               !- Design Outdoor Air Flow Rate {m3/s}
  0.3,                                    !- Minimum System Air Flow Ratio
  7,                                      !- Preheat Design Temperature {C}
  0.008,                                  !- Preheat Design Humidity Ratio {kg-H2O/kg-Air}
  12.8,                                   !- Precool Design Temperature {C}
  0.008,                                  !- Precool Design Humidity Ratio {kg-H2O/kg-Air}
  12.8,                                   !- Central Cooling Design Supply Air Temperature {C}
  12.8,                                   !- Central Heating Design Supply Air Temperature {C}
  NonCoincident,                          !- Sizing Option
  Yes,                                    !- 100% Outdoor Air in Cooling
  Yes,                                    !- 100% Outdoor Air in Heating
  0.0085,                                 !- Central Cooling Design Supply Air Humidity Ratio {kg-H2O/kg-Air}
  0.008,                                  !- Central Heating Design Supply Air Humidity Ratio {kg-H2O/kg-Air}
  DesignDay,                              !- Cooling Design Air Flow Method
  0,                                      !- Cooling Design Air Flow Rate {m3/s}
  DesignDay,                              !- Heating Design Air Flow Method
  0,                                      !- Heating Design Air Flow Rate {m3/s}
  ZoneSum;                                !- System Outdoor Air Method

OS:Fan:VariableVolume,
  {d719e276-2f38-4f2c-87e0-3fff8f9cc049}, !- Handle
  Fan Variable Volume 1,                  !- Name
  {e56ed723-5c00-47f9-87fc-a6c63372e6eb}, !- Availability Schedule Name
  0.5,                                    !- Fan Efficiency
  500,                                    !- Pressure Rise {Pa}
  Autosize,                               !- Maximum Flow Rate {m3/s}
  FixedFlowRate,                          !- Fan Power Minimum Flow Rate Input Method
  0,                                      !- Fan Power Minimum Flow Fraction
  0,                                      !- Fan Power Minimum Air Flow Rate {m3/s}
  0.93,                                   !- Motor Efficiency
  1,                                      !- Motor In Airstream Fraction
  0.040759894,                            !- Fan Power Coefficient 1
  0.08804497,                             !- Fan Power Coefficient 2
  -0.07292612,                            !- Fan Power Coefficient 3
  0.943739823,                            !- Fan Power Coefficient 4
  0,                                      !- Fan Power Coefficient 5
  {f84d6116-d12e-4831-bda2-65faf3c0ac56}, !- Air Inlet Node Name
  {35f81f0e-21e5-4309-8504-fa7dea886f6b}, !- Air Outlet Node Name
  ;                                       !- End-Use Subcategory

OS:ScheduleTypeLimits,
  {4552118b-88b4-4123-8398-9eba1f1b6103}, !- Handle
  OnOff,                                  !- Name
  0,                                      !- Lower Limit Value {BasedOnField A4}
  1,                                      !- Upper Limit Value {BasedOnField A4}
  Discrete,                               !- Numeric Type
  Availability;                           !- Unit Type

OS:Coil:Heating:Water,
  {09efafbe-5ea5-4d2b-ae69-c116fcbcda61}, !- Handle
  Coil Heating Water 1,                   !- Name
  {e56ed723-5c00-47f9-87fc-a6c63372e6eb}, !- Availability Schedule Name
  ,                                       !- U-Factor Times Area Value {W/K}
  ,                                       !- Maximum Water Flow Rate {m3/s}
  {26f6af03-b53a-43eb-bb60-282496e80eb1}, !- Water Inlet Node Name
  {f2f7e4de-0832-405c-9c1a-01545dfd9611}, !- Water Outlet Node Name
  {4af857c1-7560-4e6a-beaa-3233b13a957d}, !- Air Inlet Node Name
  {a91cdb5e-f15b-4f1d-b45b-5de4867c3bfa}, !- Air Outlet Node Name
  ,                                       !- Performance Input Method
  ,                                       !- Rated Capacity {W}
  ,                                       !- Rated Inlet Water Temperature {C}
  ,                                       !- Rated Inlet Air Temperature {C}
  ,                                       !- Rated Outlet Water Temperature {C}
  ,                                       !- Rated Outlet Air Temperature {C}
  ;                                       !- Rated Ratio for Air and Water Convection

OS:Curve:Biquadratic,
  {855ee670-0f93-41a0-9be9-f03a91e8c285}, !- Handle
  Curve Biquadratic 1,                    !- Name
  0.42415,                                !- Coefficient1 Constant
  0.04426,                                !- Coefficient2 x
  -0.00042,                               !- Coefficient3 x**2
  0.00333,                                !- Coefficient4 y
  -8e-05,                                 !- Coefficient5 y**2
  -0.00021,                               !- Coefficient6 x*y
  17,                                     !- Minimum Value of x {BasedOnField A2}
  22,                                     !- Maximum Value of x {BasedOnField A2}
  13,                                     !- Minimum Value of y {BasedOnField A3}
  46;                                     !- Maximum Value of y {BasedOnField A3}

OS:Curve:Quadratic,
  {4e5a112c-e6f2-47e9-a86e-6584a9e30673}, !- Handle
  Curve Quadratic 1,                      !- Name
  0.77136,                                !- Coefficient1 Constant
  0.34053,                                !- Coefficient2 x
  -0.11088,                               !- Coefficient3 x**2
  0.75918,                                !- Minimum Value of x {BasedOnField A2}
  1.13877;                                !- Maximum Value of x {BasedOnField A2}

OS:Curve:Biquadratic,
  {66d8b3ea-7854-4dc5-bdbe-6d4f546e8ddf}, !- Handle
  Curve Biquadratic 2,                    !- Name
  1.23649,                                !- Coefficient1 Constant
  -0.02431,                               !- Coefficient2 x
  0.00057,                                !- Coefficient3 x**2
  -0.01434,                               !- Coefficient4 y
  0.00063,                                !- Coefficient5 y**2
  -0.00038,                               !- Coefficient6 x*y
  17,                                     !- Minimum Value of x {BasedOnField A2}
  22,                                     !- Maximum Value of x {BasedOnField A2}
  13,                                     !- Minimum Value of y {BasedOnField A3}
  46;                                     !- Maximum Value of y {BasedOnField A3}

OS:Curve:Quadratic,
  {92863012-db2f-46ed-b55a-1201fe1c6699}, !- Handle
  Curve Quadratic 2,                      !- Name
  1.2055,                                 !- Coefficient1 Constant
  -0.32953,                               !- Coefficient2 x
  0.12308,                                !- Coefficient3 x**2
  0.75918,                                !- Minimum Value of x {BasedOnField A2}
  1.13877;                                !- Maximum Value of x {BasedOnField A2}

OS:Curve:Quadratic,
  {05b89856-a534-42bd-b535-14591c0c859f}, !- Handle
  Curve Quadratic 3,                      !- Name
  0.771,                                  !- Coefficient1 Constant
  0.229,                                  !- Coefficient2 x
  0,                                      !- Coefficient3 x**2
  0,                                      !- Minimum Value of x {BasedOnField A2}
  1;                                      !- Maximum Value of x {BasedOnField A2}

OS:Curve:Biquadratic,
  {1d0b35fa-f2e4-4dc9-996b-68524be11025}, !- Handle
  Curve Biquadratic 3,                    !- Name
  0,                                      !- Coefficient1 Constant
  0,                                      !- Coefficient2 x
  0,                                      !- Coefficient3 x**2
  0,                                      !- Coefficient4 y
  0,                                      !- Coefficient5 y**2
  0,                                      !- Coefficient6 x*y
  0,                                      !- Minimum Value of x {BasedOnField A2}
  1,                                      !- Maximum Value of x {BasedOnField A2}
  0,                                      !- Minimum Value of y {BasedOnField A3}
  1;                                      !- Maximum Value of y {BasedOnField A3}

OS:Curve:Biquadratic,
  {4ae59152-d1f9-443b-a61c-5634499115f3}, !- Handle
  Curve Biquadratic 4,                    !- Name
  0,                                      !- Coefficient1 Constant
  0,                                      !- Coefficient2 x
  0,                                      !- Coefficient3 x**2
  0,                                      !- Coefficient4 y
  0,                                      !- Coefficient5 y**2
  0,                                      !- Coefficient6 x*y
  0,                                      !- Minimum Value of x {BasedOnField A2}
  1,                                      !- Maximum Value of x {BasedOnField A2}
  0,                                      !- Minimum Value of y {BasedOnField A3}
  1;                                      !- Maximum Value of y {BasedOnField A3}

OS:Coil:Cooling:DX:TwoSpeed,
  {0fb981d5-e29a-4e21-9d65-2ddd83d2c8c9}, !- Handle
  Coil Cooling DX Two Speed 1,            !- Name
  {e56ed723-5c00-47f9-87fc-a6c63372e6eb}, !- Availability Schedule Name
  Autosize,                               !- Rated High Speed Total Cooling Capacity {W}
  Autosize,                               !- Rated High Speed Sensible Heat Ratio
  5.5,                                    !- Rated High Speed COP {W/W}
  Autosize,                               !- Rated High Speed Air Flow Rate {m3/s}
  {0e63c89b-9044-485b-8d47-683057311f40}, !- Air Inlet Node Name
  {a44d6157-3b21-447c-a568-99f7f676e945}, !- Air Outlet Node Name
  {855ee670-0f93-41a0-9be9-f03a91e8c285}, !- Total Cooling Capacity Function of Temperature Curve Name
  {4e5a112c-e6f2-47e9-a86e-6584a9e30673}, !- Total Cooling Capacity Function of Flow Fraction Curve Name
  {66d8b3ea-7854-4dc5-bdbe-6d4f546e8ddf}, !- Energy Input Ratio Function of Temperature Curve Name
  {92863012-db2f-46ed-b55a-1201fe1c6699}, !- Energy Input Ratio Function of Flow Fraction Curve Name
  {05b89856-a534-42bd-b535-14591c0c859f}, !- Part Load Fraction Correlation Curve Name
  Autosize,                               !- Rated Low Speed Total Cooling Capacity {W}
  0.69,                                   !- Rated Low Speed Sensible Heat Ratio
  6.6,                                    !- Rated Low Speed COP {W/W}
  ,                                       !- Rated Low Speed Air Flow Rate {m3/s}
  {1d0b35fa-f2e4-4dc9-996b-68524be11025}, !- Low Speed Total Cooling Capacity Function of Temperature Curve Name
  {4ae59152-d1f9-443b-a61c-5634499115f3}, !- Low Speed Energy Input Ratio Function of Temperature Curve Name
  ,                                       !- Condenser Air Inlet Node Name
  AirCooled,                              !- Condenser Type
  0,                                      !- High Speed Evaporative Condenser Effectiveness {dimensionless}
  Autosize,                               !- High Speed Evaporative Condenser Air Flow Rate {m3/s}
  Autosize,                               !- High Speed Evaporative Condenser Pump Rated Power Consumption {W}
  0,                                      !- Low Speed Evaporative Condenser Effectiveness {dimensionless}
  Autosize,                               !- Low Speed Evaporative Condenser Air Flow Rate {m3/s}
  Autosize,                               !- Low Speed Evaporative Condenser Pump Rated Power Consumption {W}
  ,                                       !- Supply Water Storage Tank Name
  ,                                       !- Condensate Collection Water Storage Tank Name
  10,                                     !- Basin Heater Capacity {W/K}
  2,                                      !- Basin Heater Setpoint Temperature {C}
  ;                                       !- Basin Heater Operating Schedule Name

OS:SetpointManager:MixedAir,
  {30e903e4-795e-4ca4-8acf-b6dafea43b10}, !- Handle
  Setpoint Manager Mixed Air 1,           !- Name
  ,                                       !- Control Variable
  {898fd700-064c-4592-8528-1ead5b3d7f25}, !- Reference Setpoint Node Name
  {36f217bf-8c04-45c2-aa9b-75ca556b2406}, !- Fan Inlet Node Name
  {898fd700-064c-4592-8528-1ead5b3d7f25}, !- Fan Outlet Node Name
  {36f217bf-8c04-45c2-aa9b-75ca556b2406}; !- Setpoint Node or NodeList Name

OS:SetpointManager:MixedAir,
  {7b1fb357-8824-4b2a-ac05-edcb78e0a40f}, !- Handle
  Setpoint Manager Mixed Air 2,           !- Name
  ,                                       !- Control Variable
  {898fd700-064c-4592-8528-1ead5b3d7f25}, !- Reference Setpoint Node Name
  {36f217bf-8c04-45c2-aa9b-75ca556b2406}, !- Fan Inlet Node Name
  {898fd700-064c-4592-8528-1ead5b3d7f25}, !- Fan Outlet Node Name
  {b33dfe8a-665f-4dfb-b6e2-e345d0900e37}; !- Setpoint Node or NodeList Name

OS:SetpointManager:MixedAir,
  {e6f4ecd7-5ccd-4531-a085-22bfd664561e}, !- Handle
  Setpoint Manager Mixed Air 3,           !- Name
  ,                                       !- Control Variable
  {898fd700-064c-4592-8528-1ead5b3d7f25}, !- Reference Setpoint Node Name
  {36f217bf-8c04-45c2-aa9b-75ca556b2406}, !- Fan Inlet Node Name
  {898fd700-064c-4592-8528-1ead5b3d7f25}, !- Fan Outlet Node Name
  {5bf32c44-a560-4a83-9bdf-6d89b98d5a0c}; !- Setpoint Node or NodeList Name

OS:SetpointManager:Scheduled,
  {ad01d550-e2a4-4b7d-848f-f8ddcec42656}, !- Handle
  Setpoint Manager Scheduled 1,           !- Name
  Temperature,                            !- Control Variable
  {6939a4d8-eff7-4278-8def-16bb88b7be31}, !- Schedule Name
  {898fd700-064c-4592-8528-1ead5b3d7f25}; !- Setpoint Node or NodeList Name

OS:ScheduleTypeLimits,
  {4ad1e3f9-808e-4045-84a2-b6b3a3318390}, !- Handle
  Temperature,                            !- Name
  ,                                       !- Lower Limit Value {BasedOnField A4}
  ,                                       !- Upper Limit Value {BasedOnField A4}
  Continuous,                             !- Numeric Type
  Temperature;                            !- Unit Type

OS:Controller:OutdoorAir,
  {8194bcde-feaf-41f8-b983-0f62541cd2ba}, !- Handle
  Controller Outdoor Air 1,               !- Name
  ,                                       !- Relief Air Outlet Node Name
  ,                                       !- Return Air Node Name
  ,                                       !- Mixed Air Node Name
  ,                                       !- Actuator Node Name
  Autosize,                               !- Minimum Outdoor Air Flow Rate {m3/s}
  Autosize,                               !- Maximum Outdoor Air Flow Rate {m3/s}
  FixedDryBulb,                           !- Economizer Control Type
  ModulateFlow,                           !- Economizer Control Action Type
  30,                                     !- Economizer Maximum Limit Dry-Bulb Temperature {C}
  64000,                                  !- Economizer Maximum Limit Enthalpy {J/kg}
  ,                                       !- Economizer Maximum Limit Dewpoint Temperature {C}
  ,                                       !- Electronic Enthalpy Limit Curve Name
  -100,                                   !- Economizer Minimum Limit Dry-Bulb Temperature {C}
  NoLockout,                              !- Lockout Type
  FixedMinimum,                           !- Minimum Limit Type
  ,                                       !- Minimum Outdoor Air Schedule Name
  ,                                       !- Minimum Fraction of Outdoor Air Schedule Name
  ,                                       !- Maximum Fraction of Outdoor Air Schedule Name
  ,                                       !- Mechanical Ventilation Controller Name
  ,                                       !- Time of Day Economizer Control Schedule Name
  No,                                     !- High Humidity Control
  ,                                       !- Humidistat Control Zone Name
  ,                                       !- High Humidity Outdoor Air Flow Ratio
  ,                                       !- Control High Indoor Humidity Based on Outdoor Humidity Ratio
  BypassWhenOAFlowGreaterThanMinimum;     !- Heat Recovery Bypass Control Type

OS:AirLoopHVAC:OutdoorAirSystem,
  {bf1f0983-4108-4d35-ae75-8bfa2a80f171}, !- Handle
  Air Loop HVAC Outdoor Air System 1,     !- Name
  {8194bcde-feaf-41f8-b983-0f62541cd2ba}, !- Controller Name
  ,                                       !- Outdoor Air Equipment List Name
  ,                                       !- Availability Manager List Name
  {beafe480-48c5-4e61-b8a1-3070f27e3111}, !- Mixed Air Node Name
  {0c2a129a-32e7-4472-a85f-f0f4f0012aa8}, !- Outdoor Air Stream Node Name
  {18049fc4-db67-4c96-bc20-505f18235c51}, !- Relief Air Stream Node Name
  {14f9afd4-93b5-479e-ab73-4208b9d279ce}; !- Return Air Stream Node Name

OS:Node,
  {7153b933-b8ec-4330-8dc8-d6bf35e2be03}, !- Handle
  Node 6,                                 !- Name
  ,                                       !- Inlet Port
  {0c2a129a-32e7-4472-a85f-f0f4f0012aa8}; !- Outlet Port

OS:Connection,
  {0c2a129a-32e7-4472-a85f-f0f4f0012aa8}, !- Handle
  Connection 10,                          !- Name
  {7153b933-b8ec-4330-8dc8-d6bf35e2be03}, !- Source Object
  3,                                      !- Outlet Port
  {bf1f0983-4108-4d35-ae75-8bfa2a80f171}, !- Target Object
  6;                                      !- Inlet Port

OS:Node,
  {cc68d5fb-52a8-4465-bc5e-8d145ef73827}, !- Handle
  Node 7,                                 !- Name
  {18049fc4-db67-4c96-bc20-505f18235c51}, !- Inlet Port
  ;                                       !- Outlet Port

OS:Connection,
  {18049fc4-db67-4c96-bc20-505f18235c51}, !- Handle
  Connection 11,                          !- Name
  {bf1f0983-4108-4d35-ae75-8bfa2a80f171}, !- Source Object
  7,                                      !- Outlet Port