
OS:Version,
  {feecfb1e-5af5-40cc-b82e-590687be2661}, !- Handle
  0.10.0;                                 !- Version Identifier

OS:BuildingStory,
  {34fd8c12-2dc2-4a65-b291-202a5b42cb71}, !- Handle
  Story 1,                                !- Name
  0,                                      !- Nominal Z Coordinate {m}
  4,                                      !- Nominal Floor to Floor Height {m}
  ,                                       !- Default Construction Set Name
  ,                                       !- Default Schedule Set Name
  ;                                       !- Group Rendering Name

OS:Space,
  {8982272c-a64e-4d70-9674-3ef450348e72}, !- Handle
  Story 1 West Perimeter Space,           !- Name
  ,                                       !- Space Type Name
  ,                                       !- Default Construction Set Name
  ,                                       !- Default Schedule Set Name
  -0,                                     !- Direction of Relative North {deg}
  0,                                      !- X Origin {m}
  0,                                      !- Y Origin {m}
  0,                                      !- Z Origin {m}
  {34fd8c12-2dc2-4a65-b291-202a5b42cb71}, !- Building Story Name
  {a9f1d72a-d92e-4e45-970f-0296150e2f32}; !- Thermal Zone Name

OS:Surface,
  {70ab14f3-1ff9-402a-8026-36b63ec74fba}, !- Handle
  Surface 1,                              !- Name
  Floor,                                  !- Surface Type
  ,                                       !- Construction Name
  {8982272c-a64e-4d70-9674-3ef450348e72}, !- Space Name
  Ground,                                 !- Outside Boundary Condition
  ,                                       !- Outside Boundary Condition Object
  NoSun,                                  !- Sun Exposure
  NoWind,                                 !- Wind Exposure
  ,                                       !- View Factor to Ground
  ,                                       !- Number of Vertices
  0, 0, 0,                                !- X,Y,Z Vertex 1 {m}
  0, 11.1803398874989, 0,                 !- X,Y,Z Vertex 2 {m}
  3, 8.18033988749895, 0,                 !- X,Y,Z Vertex 3 {m}
  3, 3, 0;                                !- X,Y,Z Vertex 4 {m}

OS:Surface,
  {e21899d1-bf07-42f7-bb04-7296d674a2c9}, !- Handle
  Surface 2,                              !- Name
  Wall,                                   !- Surface Type
  ,                                       !- Construction Name
  {8982272c-a64e-4d70-9674-3ef450348e72}, !- Space Name
  Outdoors,                               !- Outside Boundary Condition
  ,                                       !- Outside Boundary Condition Object
  SunExposed,                             !- Sun Exposure
  WindExposed,                            !- Wind Exposure
  ,                                       !- View Factor to Ground
  ,                                       !- Number of Vertices
  0, 11.1803398874989, 4,                 !- X,Y,Z Vertex 1 {m}
  0, 11.1803398874989, 0,                 !- X,Y,Z Vertex 2 {m}
  0, 0, 0,                                !- X,Y,Z Vertex 3 {m}
  0, 0, 4;                                !- X,Y,Z Vertex 4 {m}

OS:Surface,
  {b24b5697-aad0-4072-a6d1-9bfd8ac7db77}, !- Handle
  Surface 3,                              !- Name
  Wall,                                   !- Surface Type
  ,                                       !- Construction Name
  {8982272c-a64e-4d70-9674-3ef450348e72}, !- Space Name
  Surface,                                !- Outside Boundary Condition
  {bccc0d49-7a19-4749-8ced-969d99a48a31}, !- Outside Boundary Condition Object
  NoSun,                                  !- Sun Exposure
  NoWind,                                 !- Wind Exposure
  ,                                       !- View Factor to Ground
  ,                                       !- Number of Vertices
  3, 8.18033988749895, 4,                 !- X,Y,Z Vertex 1 {m}
  3, 8.18033988749895, 0,                 !- X,Y,Z Vertex 2 {m}
  0, 11.1803398874989, 0,                 !- X,Y,Z Vertex 3 {m}
  0, 11.1803398874989, 4;                 !- X,Y,Z Vertex 4 {m}

OS:Surface,
  {50e09e9c-e663-4d0e-ac56-87fe0b43eb21}, !- Handle
  Surface 4,                              !- Name
  Wall,                                   !- Surface Type
  ,                                       !- Construction Name
  {8982272c-a64e-4d70-9674-3ef450348e72}, !- Space Name
  Surface,                                !- Outside Boundary Condition
  {059e7df7-74fb-400e-86fc-c04c40e2120d}, !- Outside Boundary Condition Object
  NoSun,                                  !- Sun Exposure
  NoWind,                                 !- Wind Exposure
  ,                                       !- View Factor to Ground
  ,                                       !- Number of Vertices
  3, 3, 4,                                !- X,Y,Z Vertex 1 {m}
  3, 3, 0,                                !- X,Y,Z Vertex 2 {m}
  3, 8.18033988749895, 0,                 !- X,Y,Z Vertex 3 {m}
  3, 8.18033988749895, 4;                 !- X,Y,Z Vertex 4 {m}

OS:Surface,
  {3f819635-2864-4f10-a89c-4fe9065c3207}, !- Handle
  Surface 5,                              !- Name
  Wall,                                   !- Surface Type
  ,                                       !- Construction Name
  {8982272c-a64e-4d70-9674-3ef450348e72}, !- Space Name
  Surface,                                !- Outside Boundary Condition
  {5c108a63-76c6-427c-8da9-78d37cf7ea2b}, !- Outside Boundary Condition Object
  NoSun,                                  !- Sun Exposure
  NoWind,                                 !- Wind Exposure
  ,                                       !- View Factor to Ground
  ,                                       !- Number of Vertices
  0, 0, 4,                                !- X,Y,Z Vertex 1 {m}
  0, 0, 0,                                !- X,Y,Z Vertex 2 {m}
  3, 3, 0,                                !- X,Y,Z Vertex 3 {m}
  3, 3, 4;                                !- X,Y,Z Vertex 4 {m}

OS:Surface,
  {667757ee-1fe1-4d0a-b57e-5230b4d49c16}, !- Handle
  Surface 6,                              !- Name
  RoofCeiling,                            !- Surface Type
  ,                                       !- Construction Name
  {8982272c-a64e-4d70-9674-3ef450348e72}, !- Space Name
  Surface,                                !- Outside Boundary Condition
  {8e93a362-b1fe-4940-900f-965c4c9cfb2e}, !- Outside Boundary Condition Object
  NoSun,                                  !- Sun Exposure
  NoWind,                                 !- Wind Exposure
  ,                                       !- View Factor to Ground
  ,                                       !- Number of Vertices
  3, 3, 4,                                !- X,Y,Z Vertex 1 {m}
  3, 8.18033988749895, 4,                 !- X,Y,Z Vertex 2 {m}
  0, 11.1803398874989, 4,                 !- X,Y,Z Vertex 3 {m}
  0, 0, 4;                                !- X,Y,Z Vertex 4 {m}

OS:Space,
  {42540b15-16d2-4dd0-a309-aec94c7a72b7}, !- Handle
  Story 1 North Perimeter Space,          !- Name
  ,                                       !- Space Type Name
  ,                                       !- Default Construction Set Name
  ,                                       !- Default Schedule Set Name
  -0,                                     !- Direction of Relative North {deg}
  3,                                      !- X Origin {m}
  8.18033988749895,                       !- Y Origin {m}
  0,                                      !- Z Origin {m}
  {34fd8c12-2dc2-4a65-b291-202a5b42cb71}, !- Building Story Name
  {c75576bc-e96d-400a-856a-ecb2dd95689d}; !- Thermal Zone Name

OS:Surface,
  {e23faa35-948b-40bd-a41a-53b85d513384}, !- Handle
  Surface 7,                              !- Name
  Floor,                                  !- Surface Type
  ,                                       !- Construction Name
  {42540b15-16d2-4dd0-a309-aec94c7a72b7}, !- Space Name
  Ground,                                 !- Outside Boundary Condition
  ,                                       !- Outside Boundary Condition Object
  NoSun,                                  !- Sun Exposure
  NoWind,                                 !- Wind Exposure
  ,                                       !- View Factor to Ground
  ,                                       !- Number of Vertices
  -3, 2.99999999999995, 0,                !- X,Y,Z Vertex 1 {m}
  8.1803398874989, 2.99999999999995, 0,   !- X,Y,Z Vertex 2 {m}
  5.18033988749895, 1.77635683940025e-15, 0, !- X,Y,Z Vertex 3 {m}
  0, 1.77635683940025e-15, 0;             !- X,Y,Z Vertex 4 {m}

OS:Surface,
  {1efec9eb-503a-4996-9763-2c9e6fec4beb}, !- Handle
  Surface 8,                              !- Name
  Wall,                                   !- Surface Type
  ,                                       !- Construction Name
  {42540b15-16d2-4dd0-a309-aec94c7a72b7}, !- Space Name
  Outdoors,                               !- Outside Boundary Condition
  ,                                       !- Outside Boundary Condition Object
  SunExposed,                             !- Sun Exposure
  WindExposed,                            !- Wind Exposure
  ,                                       !- View Factor to Ground
  ,                                       !- Number of Vertices
  8.1803398874989, 2.99999999999995, 4,   !- X,Y,Z Vertex 1 {m}
  8.1803398874989, 2.99999999999995, 0,   !- X,Y,Z Vertex 2 {m}
  -3, 2.99999999999995, 0,                !- X,Y,Z Vertex 3 {m}
  -3, 2.99999999999995, 4;                !- X,Y,Z Vertex 4 {m}

OS:Surface,
  {c33cec9c-55c7-463c-af47-ac8c9ee7f48a}, !- Handle
  Surface 9,                              !- Name
  Wall,                                   !- Surface Type
  ,                                       !- Construction Name
  {42540b15-16d2-4dd0-a309-aec94c7a72b7}, !- Space Name
  Surface,                                !- Outside Boundary Condition
  {58c1679e-c175-488f-b08d-9d0030b43d37}, !- Outside Boundary Condition Object
  NoSun,                                  !- Sun Exposure
  NoWind,                                 !- Wind Exposure
  ,                                       !- View Factor to Ground
  ,                                       !- Number of Vertices
  5.18033988749895, 1.77635683940025e-15, 4, !- X,Y,Z Vertex 1 {m}
  5.18033988749895, 1.77635683940025e-15, 0, !- X,Y,Z Vertex 2 {m}
  8.1803398874989, 2.99999999999995, 0,   !- X,Y,Z Vertex 3 {m}
  8.1803398874989, 2.99999999999995, 4;   !- X,Y,Z Vertex 4 {m}

OS:Surface,
  {da53c96b-b24a-4d3f-9c68-00b8f5efe6d8}, !- Handle
  Surface 10,                             !- Name
  Wall,                                   !- Surface Type
  ,                                       !- Construction Name
  {42540b15-16d2-4dd0-a309-aec94c7a72b7}, !- Space Name
  Surface,                                !- Outside Boundary Condition
  {fe6cc721-1166-47c5-84f4-7408ee91daef}, !- Outside Boundary Condition Object
  NoSun,                                  !- Sun Exposure
  NoWind,                                 !- Wind Exposure
  ,                                       !- View Factor to Ground
  ,                                       !- Number of Vertices
  0, 1.77635683940025e-15, 4,             !- X,Y,Z Vertex 1 {m}
  0, 1.77635683940025e-15, 0,             !- X,Y,Z Vertex 2 {m}
  5.18033988749895, 1.77635683940025e-15, 0, !- X,Y,Z Vertex 3 {m}
  5.18033988749895, 1.77635683940025e-15, 4; !- X,Y,Z Vertex 4 {m}

OS:Surface,
  {bccc0d49-7a19-4749-8ced-969d99a48a31}, !- Handle
  Surface 11,                             !- Name
  Wall,                                   !- Surface Type
  ,                                       !- Construction Name
  {42540b15-16d2-4dd0-a309-aec94c7a72b7}, !- Space Name
  Surface,                                !- Outside Boundary Condition
  {b24b5697-aad0-4072-a6d1-9bfd8ac7db77}, !- Outside Boundary Condition Object
  NoSun,                                  !- Sun Exposure
  NoWind,                                 !- Wind Exposure
  ,                                       !- View Factor to Ground
  ,                                       !- Number of Vertices
  -3, 2.99999999999995, 4,                !- X,Y,Z Vertex 1 {m}
  -3, 2.99999999999995, 0,                !- X,Y,Z Vertex 2 {m}
  0, 1.77635683940025e-15, 0,             !- X,Y,Z Vertex 3 {m}
  0, 1.77635683940025e-15, 4;             !- X,Y,Z Vertex 4 {m}

OS:Surface,
  {edce2b81-b547-4d8b-82ad-442a95e1094c}, !- Handle
  Surface 12,                             !- Name
  RoofCeiling,                            !- Surface Type
  ,                                       !- Construction Name
  {42540b15-16d2-4dd0-a309-aec94c7a72b7}, !- Space Name
  Surface,                                !- Outside Boundary Condition
  {ed34344f-f53a-4463-b436-a8038069fa4a}, !- Outside Boundary Condition Object
  NoSun,                                  !- Sun Exposure
  NoWind,                                 !- Wind Exposure
  ,                                       !- View Factor to Ground
  ,                                       !- Number of Vertices
  0, 1.77635683940025e-15, 4,             !- X,Y,Z Vertex 1 {m}
  5.18033988749895, 1.77635683940025e-15, 4, !- X,Y,Z Vertex 2 {m}
  8.1803398874989, 2.99999999999995, 4,   !- X,Y,Z Vertex 3 {m}
  -3, 2.99999999999995, 4;                !- X,Y,Z Vertex 4 {m}

OS:Space,
  {ec360c27-6a12-42e7-a9c9-e4e10d29b8a9}, !- Handle
  Story 1 East Perimeter Space,           !- Name
  ,                                       !- Space Type Name
  ,                                       !- Default Construction Set Name
  ,                                       !- Default Schedule Set Name
  -0,                                     !- Direction of Relative North {deg}
  8.18033988749895,                       !- X Origin {m}
  3,                                      !- Y Origin {m}
  0,                                      !- Z Origin {m}
  {34fd8c12-2dc2-4a65-b291-202a5b42cb71}, !- Building Story Name
  {508cdf2a-4e19-4052-a07d-24bb6d5832b1}; !- Thermal Zone Name

OS:Surface,
  {e26b3ac8-40f3-4b79-8644-d3ffe52a9452}, !- Handle
  Surface 13,                             !- Name
  Floor,                                  !- Surface Type
  ,                                       !- Construction Name
  {ec360c27-6a12-42e7-a9c9-e4e10d29b8a9}, !- Space Name
  Ground,                                 !- Outside Boundary Condition
  ,                                       !- Outside Boundary Condition Object
  NoSun,                                  !- Sun Exposure
  NoWind,                                 !- Wind Exposure
  ,                                       !- View Factor to Ground
  ,                                       !- Number of Vertices
  2.99999999999995, 8.1803398874989, 0,   !- X,Y,Z Vertex 1 {m}
  2.99999999999995, -3, 0,                !- X,Y,Z Vertex 2 {m}
  1.77635683940025e-15, 0, 0,             !- X,Y,Z Vertex 3 {m}
  1.77635683940025e-15, 5.18033988749895, 0; !- X,Y,Z Vertex 4 {m}

OS:Surface,
  {2e21b513-3b67-4698-9e64-2ea988cf4cbf}, !- Handle
  Surface 14,                             !- Name
  Wall,                                   !- Surface Type
  ,                                       !- Construction Name
  {ec360c27-6a12-42e7-a9c9-e4e10d29b8a9}, !- Space Name
  Outdoors,                               !- Outside Boundary Condition
  ,                                       !- Outside Boundary Condition Object
  SunExposed,                             !- Sun Exposure
  WindExposed,                            !- Wind Exposure
  ,                                       !- View Factor to Ground
  ,                                       !- Number of Vertices
  2.99999999999995, -3, 4,                !- X,Y,Z Vertex 1 {m}
  2.99999999999995, -3, 0,                !- X,Y,Z Vertex 2 {m}
  2.99999999999995, 8.1803398874989, 0,   !- X,Y,Z Vertex 3 {m}
  2.99999999999995, 8.1803398874989, 4;   !- X,Y,Z Vertex 4 {m}

OS:Surface,
  {5c87e800-4e1a-4e91-8e50-b2f033f5ee0d}, !- Handle
  Surface 15,                             !- Name
  Wall,                                   !- Surface Type
  ,                                       !- Construction Name
  {ec360c27-6a12-42e7-a9c9-e4e10d29b8a9}, !- Space Name
  Surface,                                !- Outside Boundary Condition
  {82885ecd-4138-4cb4-8ee6-d4eb8a476de3}, !- Outside Boundary Condition Object
  NoSun,                                  !- Sun Exposure
  NoWind,                                 !- Wind Exposure
  ,                                       !- View Factor to Ground
  ,                                       !- Number of Vertices
  1.77635683940025e-15, 0, 4,             !- X,Y,Z Vertex 1 {m}
  1.77635683940025e-15, 0, 0,             !- X,Y,Z Vertex 2 {m}
  2.99999999999995, -3, 0,                !- X,Y,Z Vertex 3 {m}
  2.99999999999995, -3, 4;                !- X,Y,Z Vertex 4 {m}

OS:Surface,
  {f5938cd3-2182-4ccf-928e-cfecc07ceaa8}, !- Handle
  Surface 16,                             !- Name
  Wall,                                   !- Surface Type
  ,                                       !- Construction Name
  {ec360c27-6a12-42e7-a9c9-e4e10d29b8a9}, !- Space Name
  Surface,                                !- Outside Boundary Condition
  {81e2bd96-713d-4042-88f8-4cdc7358c303}, !- Outside Boundary Condition Object
  NoSun,                                  !- Sun Exposure
  NoWind,                                 !- Wind Exposure
  ,                                       !- View Factor to Ground
  ,                                       !- Number of Vertices
  1.77635683940025e-15, 5.18033988749895, 4, !- X,Y,Z Vertex 1 {m}
  1.77635683940025e-15, 5.18033988749895, 0, !- X,Y,Z Vertex 2 {m}
  1.77635683940025e-15, 0, 0,             !- X,Y,Z Vertex 3 {m}
  1.77635683940025e-15, 0, 4;             !- X,Y,Z Vertex 4 {m}

OS:Surface,
  {58c1679e-c175-488f-b08d-9d0030b43d37}, !- Handle
  Surface 17,                             !- Name
  Wall,                                   !- Surface Type
  ,                                       !- Construction Name
  {ec360c27-6a12-42e7-a9c9-e4e10d29b8a9}, !- Space Name
  Surface,                                !- Outside Boundary Condition
  {c33cec9c-55c7-463c-af47-ac8c9ee7f48a}, !- Outside Boundary Condition Object
  NoSun,                                  !- Sun Exposure
  NoWind,                                 !- Wind Exposure
  ,                                       !- View Factor to Ground
  ,                                       !- Number of Vertices
  2.99999999999995, 8.1803398874989, 4,   !- X,Y,Z Vertex 1 {m}
  2.99999999999995, 8.1803398874989, 0,   !- X,Y,Z Vertex 2 {m}
  1.77635683940025e-15, 5.18033988749895, 0, !- X,Y,Z Vertex 3 {m}
  1.77635683940025e-15, 5.18033988749895, 4; !- X,Y,Z Vertex 4 {m}

OS:Surface,
  {b9a8ec67-6916-4382-ac3d-2d2ce0643265}, !- Handle
  Surface 18,                             !- Name
  RoofCeiling,                            !- Surface Type
  ,                                       !- Construction Name
  {ec360c27-6a12-42e7-a9c9-e4e10d29b8a9}, !- Space Name
  Surface,                                !- Outside Boundary Condition
  {3c3b9a44-6943-4807-aa2b-977f9515ece7}, !- Outside Boundary Condition Object
  NoSun,                                  !- Sun Exposure
  NoWind,                                 !- Wind Exposure
  ,                                       !- View Factor to Ground
  ,                                       !- Number of Vertices
  1.77635683940025e-15, 5.18033988749895, 4, !- X,Y,Z Vertex 1 {m}
  1.77635683940025e-15, 0, 4,             !- X,Y,Z Vertex 2 {m}
  2.99999999999995, -3, 4,                !- X,Y,Z Vertex 3 {m}
  2.99999999999995, 8.1803398874989, 4;   !- X,Y,Z Vertex 4 {m}

OS:Space,
  {554564d9-049e-49cb-adc2-d8e89de1ff5b}, !- Handle
  Story 1 South Perimeter Space,          !- Name
  ,                                       !- Space Type Name
  ,                                       !- Default Construction Set Name
  ,                                       !- Default Schedule Set Name
  -0,                                     !- Direction of Relative North {deg}
  0,                                      !- X Origin {m}
  0,                                      !- Y Origin {m}
  0,                                      !- Z Origin {m}
  {34fd8c12-2dc2-4a65-b291-202a5b42cb71}, !- Building Story Name
  {4c801582-ad0b-45ce-ba26-71c0a39492e9}; !- Thermal Zone Name

OS:Surface,
  {845ce7f1-19b9-4ebf-b400-47cd040c963f}, !- Handle
  Surface 19,                             !- Name
  Floor,                                  !- Surface Type
  ,                                       !- Construction Name
  {554564d9-049e-49cb-adc2-d8e89de1ff5b}, !- Space Name
  Ground,                                 !- Outside Boundary Condition
  ,                                       !- Outside Boundary Condition Object
  NoSun,                                  !- Sun Exposure
  NoWind,                                 !- Wind Exposure
  ,                                       !- View Factor to Ground
  ,                                       !- Number of Vertices
  11.1803398874989, 0, 0,                 !- X,Y,Z Vertex 1 {m}
  0, 0, 0,                                !- X,Y,Z Vertex 2 {m}
  3, 3, 0,                                !- X,Y,Z Vertex 3 {m}
  8.18033988749895, 3, 0;                 !- X,Y,Z Vertex 4 {m}

OS:Surface,
  {2ebf9001-d653-4689-9047-623458a5f2fb}, !- Handle
  Surface 20,                             !- Name
  Wall,                                   !- Surface Type
  ,                                       !- Construction Name
  {554564d9-049e-49cb-adc2-d8e89de1ff5b}, !- Space Name
  Outdoors,                               !- Outside Boundary Condition
  ,                                       !- Outside Boundary Condition Object
  SunExposed,                             !- Sun Exposure
  WindExposed,                            !- Wind Exposure
  ,                                       !- View Factor to Ground
  ,                                       !- Number of Vertices
  0, 0, 4,                                !- X,Y,Z Vertex 1 {m}
  0, 0, 0,                                !- X,Y,Z Vertex 2 {m}
  11.1803398874989, 0, 0,                 !- X,Y,Z Vertex 3 {m}
  11.1803398874989, 0, 4;                 !- X,Y,Z Vertex 4 {m}

OS:Surface,
  {5c108a63-76c6-427c-8da9-78d37cf7ea2b}, !- Handle
  Surface 21,                             !- Name
  Wall,                                   !- Surface Type
  ,                                       !- Construction Name
  {554564d9-049e-49cb-adc2-d8e89de1ff5b}, !- Space Name
  Surface,                                !- Outside Boundary Condition
  {3f819635-2864-4f10-a89c-4fe9065c3207}, !- Outside Boundary Condition Object
  NoSun,                                  !- Sun Exposure
  NoWind,                                 !- Wind Exposure
  ,                                       !- View Factor to Ground
  ,                                       !- Number of Vertices
  3, 3, 4,                                !- X,Y,Z Vertex 1 {m}
  3, 3, 0,                                !- X,Y,Z Vertex 2 {m}
  0, 0, 0,                                !- X,Y,Z Vertex 3 {m}
  0, 0, 4;                                !- X,Y,Z Vertex 4 {m}

OS:Surface,
  {13887ad9-3ecd-414a-994c-e71afa8f6cf4}, !- Handle
  Surface 22,                             !- Name
  Wall,                                   !- Surface Type
  ,                                       !- Construction Name
  {554564d9-049e-49cb-adc2-d8e89de1ff5b}, !- Space Name
  Surface,                                !- Outside Boundary Condition
  {85f00954-7cf8-410d-8324-659da297d8d6}, !- Outside Boundary Condition Object
  NoSun,                                  !- Sun Exposure
  NoWind,                                 !- Wind Exposure
  ,                                       !- View Factor to Ground
  ,                                       !- Number of Vertices
  8.18033988749895, 3, 4,                 !- X,Y,Z Vertex 1 {m}
  8.18033988749895, 3, 0,                 !- X,Y,Z Vertex 2 {m}
  3, 3, 0,                                !- X,Y,Z Vertex 3 {m}
  3, 3, 4;                                !- X,Y,Z Vertex 4 {m}

OS:Surface,
  {82885ecd-4138-4cb4-8ee6-d4eb8a476de3}, !- Handle
  Surface 23,                             !- Name
  Wall,                                   !- Surface Type
  ,                                       !- Construction Name
  {554564d9-049e-49cb-adc2-d8e89de1ff5b}, !- Space Name
  Surface,                                !- Outside Boundary Condition
  {5c87e800-4e1a-4e91-8e50-b2f033f5ee0d}, !- Outside Boundary Condition Object
  NoSun,                                  !- Sun Exposure
  NoWind,                                 !- Wind Exposure
  ,                                       !- View Factor to Ground
  ,                                       !- Number of Vertices
  11.1803398874989, 0, 4,                 !- X,Y,Z Vertex 1 {m}
  11.1803398874989, 0, 0,                 !- X,Y,Z Vertex 2 {m}
  8.18033988749895, 3, 0,                 !- X,Y,Z Vertex 3 {m}
  8.18033988749895, 3, 4;                 !- X,Y,Z Vertex 4 {m}

OS:Surface,
  {94a9ac50-22dd-4aca-b318-0f1fac1bdb7d}, !- Handle
  Surface 24,                             !- Name
  RoofCeiling,                            !- Surface Type
  ,                                       !- Construction Name
  {554564d9-049e-49cb-adc2-d8e89de1ff5b}, !- Space Name
  Surface,                                !- Outside Boundary Condition
  {deb1dd64-61f5-4aaf-bcf6-183f25177686}, !- Outside Boundary Condition Object
  NoSun,                                  !- Sun Exposure
  NoWind,                                 !- Wind Exposure
  ,                                       !- View Factor to Ground
  ,                                       !- Number of Vertices
  8.18033988749895, 3, 4,                 !- X,Y,Z Vertex 1 {m}
  3, 3, 4,                                !- X,Y,Z Vertex 2 {m}
  0, 0, 4,                                !- X,Y,Z Vertex 3 {m}
  11.1803398874989, 0, 4;                 !- X,Y,Z Vertex 4 {m}

OS:Space,
  {9c904ed8-8a07-40c4-8d2d-7e3cfb178e00}, !- Handle
  Story 1 Core Space,                     !- Name
  ,                                       !- Space Type Name
  ,                                       !- Default Construction Set Name
  ,                                       !- Default Schedule Set Name
  -0,                                     !- Direction of Relative North {deg}
  3,                                      !- X Origin {m}
  3,                                      !- Y Origin {m}
  0,                                      !- Z Origin {m}
  {34fd8c12-2dc2-4a65-b291-202a5b42cb71}, !- Building Story Name
  {92dd851f-9430-4df8-bc70-f7309fead331}; !- Thermal Zone Name

OS:Surface,
  {869dda05-242f-4f12-be73-3fb35122955a}, !- Handle
  Surface 25,                             !- Name
  Floor,                                  !- Surface Type
  ,                                       !- Construction Name
  {9c904ed8-8a07-40c4-8d2d-7e3cfb178e00}, !- Space Name
  Ground,                                 !- Outside Boundary Condition
  ,                                       !- Outside Boundary Condition Object
  NoSun,                                  !- Sun Exposure
  NoWind,                                 !- Wind Exposure
  ,                                       !- View Factor to Ground
  ,                                       !- Number of Vertices
  0, 0, 0,                                !- X,Y,Z Vertex 1 {m}
  0, 5.18033988749895, 0,                 !- X,Y,Z Vertex 2 {m}
  5.18033988749895, 5.18033988749895, 0,  !- X,Y,Z Vertex 3 {m}
  5.18033988749895, 0, 0;                 !- X,Y,Z Vertex 4 {m}

OS:Surface,
  {059e7df7-74fb-400e-86fc-c04c40e2120d}, !- Handle
  Surface 26,                             !- Name
  Wall,                                   !- Surface Type
  ,                                       !- Construction Name
  {9c904ed8-8a07-40c4-8d2d-7e3cfb178e00}, !- Space Name
  Surface,                                !- Outside Boundary Condition
  {50e09e9c-e663-4d0e-ac56-87fe0b43eb21}, !- Outside Boundary Condition Object
  NoSun,                                  !- Sun Exposure
  NoWind,                                 !- Wind Exposure
  ,                                       !- View Factor to Ground
  ,                                       !- Number of Vertices
  0, 5.18033988749895, 4,                 !- X,Y,Z Vertex 1 {m}
  0, 5.18033988749895, 0,                 !- X,Y,Z Vertex 2 {m}
  0, 0, 0,                                !- X,Y,Z Vertex 3 {m}
  0, 0, 4;                                !- X,Y,Z Vertex 4 {m}

OS:Surface,
  {fe6cc721-1166-47c5-84f4-7408ee91daef}, !- Handle
  Surface 27,                             !- Name
  Wall,                                   !- Surface Type
  ,                                       !- Construction Name
  {9c904ed8-8a07-40c4-8d2d-7e3cfb178e00}, !- Space Name
  Surface,                                !- Outside Boundary Condition
  {da53c96b-b24a-4d3f-9c68-00b8f5efe6d8}, !- Outside Boundary Condition Object
  NoSun,                                  !- Sun Exposure
  NoWind,                                 !- Wind Exposure
  ,                                       !- View Factor to Ground
  ,                                       !- Number of Vertices
  5.18033988749895, 5.18033988749895, 4,  !- X,Y,Z Vertex 1 {m}
  5.18033988749895, 5.18033988749895, 0,  !- X,Y,Z Vertex 2 {m}
  0, 5.18033988749895, 0,                 !- X,Y,Z Vertex 3 {m}
  0, 5.18033988749895, 4;                 !- X,Y,Z Vertex 4 {m}

OS:Surface,
  {81e2bd96-713d-4042-88f8-4cdc7358c303}, !- Handle
  Surface 28,                             !- Name
  Wall,                                   !- Surface Type
  ,                                       !- Construction Name