
OS:Version,
  {0ea43302-7514-4997-873b-20f5eb4f709e}, !- Handle
  0.10.0;                                 !- Version Identifier

OS:BuildingStory,
  {1e0dcb50-cbda-4ff9-8c71-294854c47f95}, !- Handle
  Story 1,                                !- Name
  0,                                      !- Nominal Z Coordinate {m}
  4,                                      !- Nominal Floor to Floor Height {m}
  ,                                       !- Default Construction Set Name
  ,                                       !- Default Schedule Set Name
  ;                                       !- Group Rendering Name

OS:Space,
  {4849cb49-49ac-4479-9d93-465dd3a43bea}, !- Handle
  Story 1 West Perimeter Space,           !- Name
  ,                                       !- Space Type Name
  ,                                       !- Default Construction Set Name
  ,                                       !- Default Schedule Set Name
  -0,                                     !- Direction of Relative North {deg}
  0,                                      !- X Origin {m}
  0,                                      !- Y Origin {m}
  0,                                      !- Z Origin {m}
  {1e0dcb50-cbda-4ff9-8c71-294854c47f95}, !- Building Story Name
  {d5687bc8-eada-4337-8b9a-90e4ab4db856}; !- Thermal Zone Name

OS:Surface,
  {2e6691ab-1f7f-4906-9af0-9f3fe6d6d765}, !- Handle
  Surface 1,                              !- Name
  Floor,                                  !- Surface Type
  ,                                       !- Construction Name
  {4849cb49-49ac-4479-9d93-465dd3a43bea}, !- Space Name
  Ground,                                 !- Outside Boundary Condition
  ,                                       !- Outside Boundary Condition Object
  NoSun,                                  !- Sun Exposure
  NoWind,                                 !- Wind Exposure
  ,                                       !- View Factor to Ground
  ,                                       !- Number of Vertices
  0, 0, 0,                                !- X,Y,Z Vertex 1 {m}
  0, 9.68245836551854, 0,                 !- X,Y,Z Vertex 2 {m}
  3, 6.68245836551854, 0,                 !- X,Y,Z Vertex 3 {m}
  3, 3, 0;                                !- X,Y,Z Vertex 4 {m}

OS:Surface,
  {19cd5511-e0d8-4be3-84fa-2fd0108c747a}, !- Handle
  Surface 2,                              !- Name
  Wall,                                   !- Surface Type
  ,                                       !- Construction Name
  {4849cb49-49ac-4479-9d93-465dd3a43bea}, !- Space Name
  Outdoors,                               !- Outside Boundary Condition
  ,                                       !- Outside Boundary Condition Object
  SunExposed,                             !- Sun Exposure
  WindExposed,                            !- Wind Exposure
  ,                                       !- View Factor to Ground
  ,                                       !- Number of Vertices
  0, 9.68245836551854, 4,                 !- X,Y,Z Vertex 1 {m}
  0, 9.68245836551854, 0,                 !- X,Y,Z Vertex 2 {m}
  0, 0, 0,                                !- X,Y,Z Vertex 3 {m}
  0, 0, 4;                                !- X,Y,Z Vertex 4 {m}

OS:Surface,
  {e39098a2-8b46-4545-8ea6-4ddd0e9c03bd}, !- Handle
  Surface 3,                              !- Name
  Wall,                                   !- Surface Type
  ,                                       !- Construction Name
  {4849cb49-49ac-4479-9d93-465dd3a43bea}, !- Space Name
  Surface,                                !- Outside Boundary Condition
  {faecc33d-b876-40f9-a86d-215ba70b629a}, !- Outside Boundary Condition Object
  NoSun,                                  !- Sun Exposure
  NoWind,                                 !- Wind Exposure
  ,                                       !- View Factor to Ground
  ,                                       !- Number of Vertices
  3, 6.68245836551854, 4,                 !- X,Y,Z Vertex 1 {m}
  3, 6.68245836551854, 0,                 !- X,Y,Z Vertex 2 {m}
  0, 9.68245836551854, 0,                 !- X,Y,Z Vertex 3 {m}
  0, 9.68245836551854, 4;                 !- X,Y,Z Vertex 4 {m}

OS:Surface,
  {70f4ae67-f3f7-4067-867e-99b432dc93aa}, !- Handle
  Surface 4,                              !- Name
  Wall,                                   !- Surface Type
  ,                                       !- Construction Name
  {4849cb49-49ac-4479-9d93-465dd3a43bea}, !- Space Name
  Surface,                                !- Outside Boundary Condition
  {18a14fd1-f37c-4a33-9fd9-eb3305e162df}, !- Outside Boundary Condition Object
  NoSun,                                  !- Sun Exposure
  NoWind,                                 !- Wind Exposure
  ,                                       !- View Factor to Ground
  ,                                       !- Number of Vertices
  3, 3, 4,                                !- X,Y,Z Vertex 1 {m}
  3, 3, 0,                                !- X,Y,Z Vertex 2 {m}
  3, 6.68245836551854, 0,                 !- X,Y,Z Vertex 3 {m}
  3, 6.68245836551854, 4;                 !- X,Y,Z Vertex 4 {m}

OS:Surface,
  {a97869d2-3297-4940-be0b-4e209eae6f36}, !- Handle
  Surface 5,                              !- Name
  Wall,                                   !- Surface Type
  ,                                       !- Construction Name
  {4849cb49-49ac-4479-9d93-465dd3a43bea}, !- Space Name
  Surface,                                !- Outside Boundary Condition
  {fa0f75d9-ab6f-4d62-aed7-385314b177dc}, !- Outside Boundary Condition Object
  NoSun,                                  !- Sun Exposure
  NoWind,                                 !- Wind Exposure
  ,                                       !- View Factor to Ground
  ,                                       !- Number of Vertices
  0, 0, 4,                                !- X,Y,Z Vertex 1 {m}
  0, 0, 0,                                !- X,Y,Z Vertex 2 {m}
  3, 3, 0,                                !- X,Y,Z Vertex 3 {m}
  3, 3, 4;                                !- X,Y,Z Vertex 4 {m}

OS:Surface,
  {ef9d1239-aed4-4b90-9fa7-a4fb32daffbb}, !- Handle
  Surface 6,                              !- Name
  RoofCeiling,                            !- Surface Type
  ,                                       !- Construction Name
  {4849cb49-49ac-4479-9d93-465dd3a43bea}, !- Space Name
  Surface,                                !- Outside Boundary Condition
  {38eb4c0f-a6a2-4db6-b045-b5cc422db0ce}, !- Outside Boundary Condition Object
  NoSun,                                  !- Sun Exposure
  NoWind,                                 !- Wind Exposure
  ,                                       !- View Factor to Ground
  ,                                       !- Number of Vertices
  3, 3, 4,                                !- X,Y,Z Vertex 1 {m}
  3, 6.68245836551854, 4,                 !- X,Y,Z Vertex 2 {m}
  0, 9.68245836551854, 4,                 !- X,Y,Z Vertex 3 {m}
  0, 0, 4;                                !- X,Y,Z Vertex 4 {m}

OS:Space,
  {37caf187-53b8-40ec-a225-320fa138ee35}, !- Handle
  Story 1 North Perimeter Space,          !- Name
  ,                                       !- Space Type Name
  ,                                       !- Default Construction Set Name
  ,                                       !- Default Schedule Set Name
  -0,                                     !- Direction of Relative North {deg}
  3,                                      !- X Origin {m}
  6.68245836551854,                       !- Y Origin {m}
  0,                                      !- Z Origin {m}
  {1e0dcb50-cbda-4ff9-8c71-294854c47f95}, !- Building Story Name
  {97030c63-99f7-4796-8acd-fd61a17f7a68}; !- Thermal Zone Name

OS:Surface,
  {15716074-ef71-4de6-8149-1e451d347452}, !- Handle
  Surface 7,                              !- Name
  Floor,                                  !- Surface Type
  ,                                       !- Construction Name
  {37caf187-53b8-40ec-a225-320fa138ee35}, !- Space Name
  Ground,                                 !- Outside Boundary Condition
  ,                                       !- Outside Boundary Condition Object
  NoSun,                                  !- Sun Exposure
  NoWind,                                 !- Wind Exposure
  ,                                       !- View Factor to Ground
  ,                                       !- Number of Vertices
  -3, 3, 0,                               !- X,Y,Z Vertex 1 {m}
  6.68245836551854, 3, 0,                 !- X,Y,Z Vertex 2 {m}
  3.68245836551854, -1.77635683940025e-15, 0, !- X,Y,Z Vertex 3 {m}
  0, -1.77635683940025e-15, 0;            !- X,Y,Z Vertex 4 {m}

OS:Surface,
  {e2b9297e-eed2-4e6b-8b69-13fec9e4d040}, !- Handle
  Surface 8,                              !- Name
  Wall,                                   !- Surface Type
  ,                                       !- Construction Name
  {37caf187-53b8-40ec-a225-320fa138ee35}, !- Space Name
  Outdoors,                               !- Outside Boundary Condition
  ,                                       !- Outside Boundary Condition Object
  SunExposed,                             !- Sun Exposure
  WindExposed,                            !- Wind Exposure
  ,                                       !- View Factor to Ground
  ,                                       !- Number of Vertices
  6.68245836551854, 3, 4,                 !- X,Y,Z Vertex 1 {m}
  6.68245836551854, 3, 0,                 !- X,Y,Z Vertex 2 {m}
  -3, 3, 0,                               !- X,Y,Z Vertex 3 {m}
  -3, 3, 4;                               !- X,Y,Z Vertex 4 {m}

OS:Surface,
  {a6fc465a-3be1-488e-b461-4d7fdd6637fc}, !- Handle
  Surface 9,                              !- Name
  Wall,                                   !- Surface Type
  ,                                       !- Construction Name
  {37caf187-53b8-40ec-a225-320fa138ee35}, !- Space Name
  Surface,                                !- Outside Boundary Condition
  {382ec2f3-c482-428c-94d2-6ffc99ee23cd}, !- Outside Boundary Condition Object
  NoSun,                                  !- Sun Exposure
  NoWind,                                 !- Wind Exposure
  ,                                       !- View Factor to Ground
  ,                                       !- Number of Vertices
  3.68245836551854, -1.77635683940025e-15, 4, !- X,Y,Z Vertex 1 {m}
  3.68245836551854, -1.77635683940025e-15, 0, !- X,Y,Z Vertex 2 {m}
  6.68245836551854, 3, 0,                 !- X,Y,Z Vertex 3 {m}
  6.68245836551854, 3, 4;                 !- X,Y,Z Vertex 4 {m}

OS:Surface,
  {be22a428-2b8f-48fd-b0e7-5c462eaf2863}, !- Handle
  Surface 10,                             !- Name
  Wall,                                   !- Surface Type
  ,                                       !- Construction Name
  {37caf187-53b8-40ec-a225-320fa138ee35}, !- Space Name
  Surface,                                !- Outside Boundary Condition
  {e565cc1c-78d3-4fea-b7fe-f559a8c0e0a8}, !- Outside Boundary Condition Object
  NoSun,                                  !- Sun Exposure
  NoWind,                                 !- Wind Exposure
  ,                                       !- View Factor to Ground
  ,                                       !- Number of Vertices
  0, -1.77635683940025e-15, 4,            !- X,Y,Z Vertex 1 {m}
  0, -1.77635683940025e-15, 0,            !- X,Y,Z Vertex 2 {m}
  3.68245836551854, -1.77635683940025e-15, 0, !- X,Y,Z Vertex 3 {m}
  3.68245836551854, -1.77635683940025e-15, 4; !- X,Y,Z Vertex 4 {m}

OS:Surface,
  {faecc33d-b876-40f9-a86d-215ba70b629a}, !- Handle
  Surface 11,                             !- Name
  Wall,                                   !- Surface Type
  ,                                       !- Construction Name
  {37caf187-53b8-40ec-a225-320fa138ee35}, !- Space Name
  Surface,                                !- Outside Boundary Condition
  {e39098a2-8b46-4545-8ea6-4ddd0e9c03bd}, !- Outside Boundary Condition Object
  NoSun,                                  !- Sun Exposure
  NoWind,                                 !- Wind Exposure
  ,                                       !- View Factor to Ground
  ,                                       !- Number of Vertices
  -3, 3, 4,                               !- X,Y,Z Vertex 1 {m}
  -3, 3, 0,                               !- X,Y,Z Vertex 2 {m}
  0, -1.77635683940025e-15, 0,            !- X,Y,Z Vertex 3 {m}
  0, -1.77635683940025e-15, 4;            !- X,Y,Z Vertex 4 {m}

OS:Surface,
  {d388b620-8cda-4aee-9766-1cadcff36f62}, !- Handle
  Surface 12,                             !- Name
  RoofCeiling,                            !- Surface Type
  ,                                       !- Construction Name
  {37caf187-53b8-40ec-a225-320fa138ee35}, !- Space Name
  Surface,                                !- Outside Boundary Condition
  {ffa7d369-9788-4ead-9642-d222a9a36dad}, !- Outside Boundary Condition Object
  NoSun,                                  !- Sun Exposure
  NoWind,                                 !- Wind Exposure
  ,                                       !- View Factor to Ground
  ,                                       !- Number of Vertices
  0, -1.77635683940025e-15, 4,            !- X,Y,Z Vertex 1 {m}
  3.68245836551854, -1.77635683940025e-15, 4, !- X,Y,Z Vertex 2 {m}
  6.68245836551854, 3, 4,                 !- X,Y,Z Vertex 3 {m}
  -3, 3, 4;                               !- X,Y,Z Vertex 4 {m}

OS:Space,
  {d5b28db9-3928-4a89-9449-41a9d0f205b5}, !- Handle
  Story 1 East Perimeter Space,           !- Name
  ,                                       !- Space Type Name
  ,                                       !- Default Construction Set Name
  ,                                       !- Default Schedule Set Name
  -0,                                     !- Direction of Relative North {deg}
  6.68245836551854,                       !- X Origin {m}
  3,                                      !- Y Origin {m}
  0,                                      !- Z Origin {m}
  {1e0dcb50-cbda-4ff9-8c71-294854c47f95}, !- Building Story Name
  {87dc98be-4690-4614-a807-e066a21894bd}; !- Thermal Zone Name

OS:Surface,
  {3a7dfbee-ad33-4cf1-9431-93aa8c6a97fb}, !- Handle
  Surface 13,                             !- Name
  Floor,                                  !- Surface Type
  ,                                       !- Construction Name
  {d5b28db9-3928-4a89-9449-41a9d0f205b5}, !- Space Name
  Ground,                                 !- Outside Boundary Condition
  ,                                       !- Outside Boundary Condition Object
  NoSun,                                  !- Sun Exposure
  NoWind,                                 !- Wind Exposure
  ,                                       !- View Factor to Ground
  ,                                       !- Number of Vertices
  3, 6.68245836551854, 0,                 !- X,Y,Z Vertex 1 {m}
  3, -3, 0,                               !- X,Y,Z Vertex 2 {m}
  -1.77635683940025e-15, 0, 0,            !- X,Y,Z Vertex 3 {m}
  -1.77635683940025e-15, 3.68245836551854, 0; !- X,Y,Z Vertex 4 {m}

OS:Surface,
  {06b680ae-715e-4442-ab50-d2a9de44a4f0}, !- Handle
  Surface 14,                             !- Name
  Wall,                                   !- Surface Type
  ,                                       !- Construction Name
  {d5b28db9-3928-4a89-9449-41a9d0f205b5}, !- Space Name
  Outdoors,                               !- Outside Boundary Condition
  ,                                       !- Outside Boundary Condition Object
  SunExposed,                             !- Sun Exposure
  WindExposed,                            !- Wind Exposure
  ,                                       !- View Factor to Ground
  ,                                       !- Number of Vertices
  3, -3, 4,                               !- X,Y,Z Vertex 1 {m}
  3, -3, 0,                               !- X,Y,Z Vertex 2 {m}
  3, 6.68245836551854, 0,                 !- X,Y,Z Vertex 3 {m}
  3, 6.68245836551854, 4;                 !- X,Y,Z Vertex 4 {m}

OS:Surface,
  {0cf18817-69af-402f-8a00-772678255116}, !- Handle
  Surface 15,                             !- Name
  Wall,                                   !- Surface Type
  ,                                       !- Construction Name
  {d5b28db9-3928-4a89-9449-41a9d0f205b5}, !- Space Name
  Surface,                                !- Outside Boundary Condition
  {dc4f4985-1761-43d5-b64c-396417f346d5}, !- Outside Boundary Condition Object
  NoSun,                                  !- Sun Exposure
  NoWind,                                 !- Wind Exposure
  ,                                       !- View Factor to Ground
  ,                                       !- Number of Vertices
  -1.77635683940025e-15, 0, 4,            !- X,Y,Z Vertex 1 {m}
  -1.77635683940025e-15, 0, 0,            !- X,Y,Z Vertex 2 {m}
  3, -3, 0,                               !- X,Y,Z Vertex 3 {m}
  3, -3, 4;                               !- X,Y,Z Vertex 4 {m}

OS:Surface,
  {8b65dbe1-68fb-4a90-8bd6-95f994524321}, !- Handle
  Surface 16,                             !- Name
  Wall,                                   !- Surface Type
  ,                                       !- Construction Name
  {d5b28db9-3928-4a89-9449-41a9d0f205b5}, !- Space Name
  Surface,                                !- Outside Boundary Condition
  {45106395-7625-4543-b7f2-5837265f2f7e}, !- Outside Boundary Condition Object
  NoSun,                                  !- Sun Exposure
  NoWind,                                 !- Wind Exposure
  ,                                       !- View Factor to Ground
  ,                                       !- Number of Vertices
  -1.77635683940025e-15, 3.68245836551854, 4, !- X,Y,Z Vertex 1 {m}
  -1.77635683940025e-15, 3.68245836551854, 0, !- X,Y,Z Vertex 2 {m}
  -1.77635683940025e-15, 0, 0,            !- X,Y,Z Vertex 3 {m}
  -1.77635683940025e-15, 0, 4;            !- X,Y,Z Vertex 4 {m}

OS:Surface,
  {382ec2f3-c482-428c-94d2-6ffc99ee23cd}, !- Handle
  Surface 17,                             !- Name
  Wall,                                   !- Surface Type
  ,                                       !- Construction Name
  {d5b28db9-3928-4a89-9449-41a9d0f205b5}, !- Space Name
  Surface,                                !- Outside Boundary Condition
  {a6fc465a-3be1-488e-b461-4d7fdd6637fc}, !- Outside Boundary Condition Object
  NoSun,                                  !- Sun Exposure
  NoWind,                                 !- Wind Exposure
  ,                                       !- View Factor to Ground
  ,                                       !- Number of Vertices
  3, 6.68245836551854, 4,                 !- X,Y,Z Vertex 1 {m}
  3, 6.68245836551854, 0,                 !- X,Y,Z Vertex 2 {m}
  -1.77635683940025e-15, 3.68245836551854, 0, !- X,Y,Z Vertex 3 {m}
  -1.77635683940025e-15, 3.68245836551854, 4; !- X,Y,Z Vertex 4 {m}

OS:Surface,
  {e9f2c687-1e04-4fdd-9574-f691cd8961f6}, !- Handle
  Surface 18,                             !- Name
  RoofCeiling,                            !- Surface Type
  ,                                       !- Construction Name
  {d5b28db9-3928-4a89-9449-41a9d0f205b5}, !- Space Name
  Surface,                                !- Outside Boundary Condition
  {5050d680-73cd-40a5-9712-1a5ebcdcf51c}, !- Outside Boundary Condition Object
  NoSun,                                  !- Sun Exposure
  NoWind,                                 !- Wind Exposure
  ,                                       !- View Factor to Ground
  ,                                       !- Number of Vertices
  -1.77635683940025e-15, 3.68245836551854, 4, !- X,Y,Z Vertex 1 {m}
  -1.77635683940025e-15, 0, 4,            !- X,Y,Z Vertex 2 {m}
  3, -3, 4,                               !- X,Y,Z Vertex 3 {m}
  3, 6.68245836551854, 4;                 !- X,Y,Z Vertex 4 {m}

OS:Space,
  {4339ea08-6a99-460c-b20f-b74cc57df1d1}, !- Handle
  Story 1 South Perimeter Space,          !- Name
  ,                                       !- Space Type Name
  ,                                       !- Default Construction Set Name
  ,                                       !- Default Schedule Set Name
  -0,                                     !- Direction of Relative North {deg}
  0,                                      !- X Origin {m}
  0,                                      !- Y Origin {m}
  0,                                      !- Z Origin {m}
  {1e0dcb50-cbda-4ff9-8c71-294854c47f95}, !- Building Story Name
  {f5c7c832-1dc1-4b4a-83c5-d988ca11231e}; !- Thermal Zone Name

OS:Surface,
  {42da6420-df93-410e-ada5-986b75c080c6}, !- Handle
  Surface 19,                             !- Name
  Floor,                                  !- Surface Type
  ,                                       !- Construction Name
  {4339ea08-6a99-460c-b20f-b74cc57df1d1}, !- Space Name
  Ground,                                 !- Outside Boundary Condition
  ,                                       !- Outside Boundary Condition Object
  NoSun,                                  !- Sun Exposure
  NoWind,                                 !- Wind Exposure
  ,                                       !- View Factor to Ground
  ,                                       !- Number of Vertices
  9.68245836551854, 0, 0,                 !- X,Y,Z Vertex 1 {m}
  0, 0, 0,                                !- X,Y,Z Vertex 2 {m}
  3, 3, 0,                                !- X,Y,Z Vertex 3 {m}
  6.68245836551854, 3, 0;                 !- X,Y,Z Vertex 4 {m}

OS:Surface,
  {7290084d-c1ea-42b1-aef7-6f82e1ff23cd}, !- Handle
  Surface 20,                             !- Name
  Wall,                                   !- Surface Type
  ,                                       !- Construction Name
  {4339ea08-6a99-460c-b20f-b74cc57df1d1}, !- Space Name
  Outdoors,                               !- Outside Boundary Condition
  ,                                       !- Outside Boundary Condition Object
  SunExposed,                             !- Sun Exposure
  WindExposed,                            !- Wind Exposure
  ,                                       !- View Factor to Ground
  ,                                       !- Number of Vertices
  0, 0, 4,                                !- X,Y,Z Vertex 1 {m}
  0, 0, 0,                                !- X,Y,Z Vertex 2 {m}
  9.68245836551854, 0, 0,                 !- X,Y,Z Vertex 3 {m}
  9.68245836551854, 0, 4;                 !- X,Y,Z Vertex 4 {m}

OS:Surface,
  {fa0f75d9-ab6f-4d62-aed7-385314b177dc}, !- Handle
  Surface 21,                             !- Name
  Wall,                                   !- Surface Type
  ,                                       !- Construction Name
  {4339ea08-6a99-460c-b20f-b74cc57df1d1}, !- Space Name
  Surface,                                !- Outside Boundary Condition
  {a97869d2-3297-4940-be0b-4e209eae6f36}, !- Outside Boundary Condition Object
  NoSun,                                  !- Sun Exposure
  NoWind,                                 !- Wind Exposure
  ,                                       !- View Factor to Ground
  ,                                       !- Number of Vertices
  3, 3, 4,                                !- X,Y,Z Vertex 1 {m}
  3, 3, 0,                                !- X,Y,Z Vertex 2 {m}
  0, 0, 0,                                !- X,Y,Z Vertex 3 {m}
  0, 0, 4;                                !- X,Y,Z Vertex 4 {m}

OS:Surface,
  {c6a8431b-d9c0-4675-9a1c-7dd953fece7d}, !- Handle
  Surface 22,                             !- Name
  Wall,                                   !- Surface Type
  ,                                       !- Construction Name
  {4339ea08-6a99-460c-b20f-b74cc57df1d1}, !- Space Name
  Surface,                                !- Outside Boundary Condition
  {ba388ba9-7fd2-48a2-a682-e29fd4370824}, !- Outside Boundary Condition Object
  NoSun,                                  !- Sun Exposure
  NoWind,                                 !- Wind Exposure
  ,                                       !- View Factor to Ground
  ,                                       !- Number of Vertices
  6.68245836551854, 3, 4,                 !- X,Y,Z Vertex 1 {m}
  6.68245836551854, 3, 0,                 !- X,Y,Z Vertex 2 {m}
  3, 3, 0,                                !- X,Y,Z Vertex 3 {m}
  3, 3, 4;                                !- X,Y,Z Vertex 4 {m}

OS:Surface,
  {dc4f4985-1761-43d5-b64c-396417f346d5}, !- Handle
  Surface 23,                             !- Name
  Wall,                                   !- Surface Type
  ,                                       !- Construction Name
  {4339ea08-6a99-460c-b20f-b74cc57df1d1}, !- Space Name
  Surface,                                !- Outside Boundary Condition
  {0cf18817-69af-402f-8a00-772678255116}, !- Outside Boundary Condition Object
  NoSun,                                  !- Sun Exposure
  NoWind,                                 !- Wind Exposure
  ,                                       !- View Factor to Ground
  ,                                       !- Number of Vertices
  9.68245836551854, 0, 4,                 !- X,Y,Z Vertex 1 {m}
  9.68245836551854, 0, 0,                 !- X,Y,Z Vertex 2 {m}
  6.68245836551854, 3, 0,                 !- X,Y,Z Vertex 3 {m}
  6.68245836551854, 3, 4;                 !- X,Y,Z Vertex 4 {m}

OS:Surface,
  {f71390b5-0658-4622-9f40-a92c4a92df26}, !- Handle
  Surface 24,                             !- Name
  RoofCeiling,                            !- Surface Type
  ,                                       !- Construction Name
  {4339ea08-6a99-460c-b20f-b74cc57df1d1}, !- Space Name
  Surface,                                !- Outside Boundary Condition
  {b1c8a333-0f27-4aa2-b901-ae1d3bb013e1}, !- Outside Boundary Condition Object
  NoSun,                                  !- Sun Exposure
  NoWind,                                 !- Wind Exposure
  ,                                       !- View Factor to Ground
  ,                                       !- Number of Vertices
  6.68245836551854, 3, 4,                 !- X,Y,Z Vertex 1 {m}
  3, 3, 4,                                !- X,Y,Z Vertex 2 {m}
  0, 0, 4,                                !- X,Y,Z Vertex 3 {m}
  9.68245836551854, 0, 4;                 !- X,Y,Z Vertex 4 {m}

OS:Space,
  {4b78adb6-d8d1-4040-b3ce-a65cc42024e7}, !- Handle
  Story 1 Core Space,                     !- Name
  ,                                       !- Space Type Name
  ,                                       !- Default Construction Set Name
  ,                                       !- Default Schedule Set Name
  -0,                                     !- Direction of Relative North {deg}
  3,                                      !- X Origin {m}
  3,                                      !- Y Origin {m}
  0,                                      !- Z Origin {m}
  {1e0dcb50-cbda-4ff9-8c71-294854c47f95}, !- Building Story Name
  {d75fe4b1-21da-49d6-9965-3f3eeecc7f24}; !- Thermal Zone Name

OS:Surface,
  {dba41f4f-2b89-4e24-acd1-a46baf36b37e}, !- Handle
  Surface 25,                             !- Name
  Floor,                                  !- Surface Type
  ,                                       !- Construction Name
  {4b78adb6-d8d1-4040-b3ce-a65cc42024e7}, !- Space Name
  Ground,                                 !- Outside Boundary Condition
  ,                                       !- Outside Boundary Condition Object
  NoSun,                                  !- Sun Exposure
  NoWind,                                 !- Wind Exposure
  ,                                       !- View Factor to Ground
  ,                                       !- Number of Vertices
  0, 0, 0,                                !- X,Y,Z Vertex 1 {m}
  0, 3.68245836551854, 0,                 !- X,Y,Z Vertex 2 {m}
  3.68245836551854, 3.68245836551854, 0,  !- X,Y,Z Vertex 3 {m}
  3.68245836551854, 0, 0;                 !- X,Y,Z Vertex 4 {m}

OS:Surface,
  {18a14fd1-f37c-4a33-9fd9-eb3305e162df}, !- Handle
  Surface 26,                             !- Name
  Wall,                                   !- Surface Type
  ,                                       !- Construction Name
  {4b78adb6-d8d1-4040-b3ce-a65cc42024e7}, !- Space Name
  Surface,                                !- Outside Boundary Condition
  {70f4ae67-f3f7-4067-867e-99b432dc93aa}, !- Outside Boundary Condition Object
  NoSun,                                  !- Sun Exposure
  NoWind,                                 !- Wind Exposure
  ,                                       !- View Factor to Ground
  ,                                       !- Number of Vertices
  0, 3.68245836551854, 4,                 !- X,Y,Z Vertex 1 {m}
  0, 3.68245836551854, 0,                 !- X,Y,Z Vertex 2 {m}
  0, 0, 0,                                !- X,Y,Z Vertex 3 {m}
  0, 0, 4;                                !- X,Y,Z Vertex 4 {m}

OS:Surface,
  {e565cc1c-78d3-4fea-b7fe-f559a8c0e0a8}, !- Handle
  Surface 27,                             !- Name
  Wall,                                   !- Surface Type
  ,                                       !- Construction Name
  {4b78adb6-d8d1-4040-b3ce-a65cc42024e7}, !- Space Name
  Surface,                                !- Outside Boundary Condition
  {be22a428-2b8f-48fd-b0e7-5c462eaf2863}, !- Outside Boundary Condition Object
  NoSun,                                  !- Sun Exposure
  NoWind,                                 !- Wind Exposure
  ,                                       !- View Factor to Ground
  ,                                       !- Number of Vertices
  3.68245836551854, 3.68245836551854, 4,  !- X,Y,Z Vertex 1 {m}
  3.68245836551854, 3.68245836551854, 0,  !- X,Y,Z Vertex 2 {m}
  0, 3.68245836551854, 0,                 !- X,Y,Z Vertex 3 {m}
  0, 3.68245836551854, 4;                 !- X,Y,Z Vertex 4 {m}

OS:Surface,
  {45106395-7625-4543-b7f2-5837265f2f7e}, !- Handle
  Surface 28,                             !- Name
  Wall,                                   !- Surface Type
  ,                                       !- Construction Name