
OS:Version,
  {146fa334-0cec-4483-a545-0dd6d70b495a}, !- Handle
  0.10.0;                                 !- Version Identifier

OS:BuildingStory,
  {fecf9779-0108-4def-aab7-1810d6e7d2fb}, !- Handle
  Story 1,                                !- Name
  0,                                      !- Nominal Z Coordinate {m}
  4,                                      !- Nominal Floor to Floor Height {m}
  ,                                       !- Default Construction Set Name
  ,                                       !- Default Schedule Set Name
  ;                                       !- Group Rendering Name

OS:Space,
  {6a9c3e65-d588-4f01-9926-a1e7482caa53}, !- Handle
  Story 1 West Perimeter Space,           !- Name
  ,                                       !- Space Type Name
  ,                                       !- Default Construction Set Name
  ,                                       !- Default Schedule Set Name
  -0,                                     !- Direction of Relative North {deg}
  0,                                      !- X Origin {m}
  0,                                      !- Y Origin {m}
  0,                                      !- Z Origin {m}
  {fecf9779-0108-4def-aab7-1810d6e7d2fb}, !- Building Story Name
  {ab40fcc2-bdca-4f3d-9e41-2c8fa2954289}; !- Thermal Zone Name

OS:Surface,
  {34b946af-9bc8-4ae4-b372-862ab7ce8248}, !- Handle
  Surface 1,                              !- Name
  Floor,                                  !- Surface Type
  ,                                       !- Construction Name
  {6a9c3e65-d588-4f01-9926-a1e7482caa53}, !- Space Name
  Ground,                                 !- Outside Boundary Condition
  ,                                       !- Outside Boundary Condition Object
  NoSun,                                  !- Sun Exposure
  NoWind,                                 !- Wind Exposure
  ,                                       !- View Factor to Ground
  ,                                       !- Number of Vertices
  0, 0, 0,                                !- X,Y,Z Vertex 1 {m}
  0, 15.8113883008419, 0,                 !- X,Y,Z Vertex 2 {m}
  3, 12.8113883008419, 0,                 !- X,Y,Z Vertex 3 {m}
  3, 3, 0;                                !- X,Y,Z Vertex 4 {m}

OS:Surface,
  {5d0847bf-086d-48e5-933c-f68596d0e286}, !- Handle
  Surface 2,                              !- Name
  Wall,                                   !- Surface Type
  ,                                       !- Construction Name
  {6a9c3e65-d588-4f01-9926-a1e7482caa53}, !- Space Name
  Outdoors,                               !- Outside Boundary Condition
  ,                                       !- Outside Boundary Condition Object
  SunExposed,                             !- Sun Exposure
  WindExposed,                            !- Wind Exposure
  ,                                       !- View Factor to Ground
  ,                                       !- Number of Vertices
  0, 15.8113883008419, 4,                 !- X,Y,Z Vertex 1 {m}
  0, 15.8113883008419, 0,                 !- X,Y,Z Vertex 2 {m}
  0, 0, 0,                                !- X,Y,Z Vertex 3 {m}
  0, 0, 4;                                !- X,Y,Z Vertex 4 {m}

OS:Surface,
  {9886beb6-5e95-48a3-854c-257559c350ee}, !- Handle
  Surface 3,                              !- Name
  Wall,                                   !- Surface Type
  ,                                       !- Construction Name
  {6a9c3e65-d588-4f01-9926-a1e7482caa53}, !- Space Name
  Surface,                                !- Outside Boundary Condition
  {7be25662-771c-4bf4-b280-833d093aa216}, !- Outside Boundary Condition Object
  NoSun,                                  !- Sun Exposure
  NoWind,                                 !- Wind Exposure
  ,                                       !- View Factor to Ground
  ,                                       !- Number of Vertices
  3, 12.8113883008419, 4,                 !- X,Y,Z Vertex 1 {m}
  3, 12.8113883008419, 0,                 !- X,Y,Z Vertex 2 {m}
  0, 15.8113883008419, 0,                 !- X,Y,Z Vertex 3 {m}
  0, 15.8113883008419, 4;                 !- X,Y,Z Vertex 4 {m}

OS:Surface,
  {01160242-3d63-4315-9f87-296724e2352a}, !- Handle
  Surface 4,                              !- Name
  Wall,                                   !- Surface Type
  ,                                       !- Construction Name
  {6a9c3e65-d588-4f01-9926-a1e7482caa53}, !- Space Name
  Surface,                                !- Outside Boundary Condition
  {7fb5c9b8-ccde-499a-a66a-0ecfcff12258}, !- Outside Boundary Condition Object
  NoSun,                                  !- Sun Exposure
  NoWind,                                 !- Wind Exposure
  ,                                       !- View Factor to Ground
  ,                                       !- Number of Vertices
  3, 3, 4,                                !- X,Y,Z Vertex 1 {m}
  3, 3, 0,                                !- X,Y,Z Vertex 2 {m}
  3, 12.8113883008419, 0,                 !- X,Y,Z Vertex 3 {m}
  3, 12.8113883008419, 4;                 !- X,Y,Z Vertex 4 {m}

OS:Surface,
  {de5cc006-b541-41cf-b272-8aa0e54ef77d}, !- Handle
  Surface 5,                              !- Name
  Wall,                                   !- Surface Type
  ,                                       !- Construction Name
  {6a9c3e65-d588-4f01-9926-a1e7482caa53}, !- Space Name
  Surface,                                !- Outside Boundary Condition
  {c064e8da-75b9-46d6-b6c7-b9538fe97eb8}, !- Outside Boundary Condition Object
  NoSun,                                  !- Sun Exposure
  NoWind,                                 !- Wind Exposure
  ,                                       !- View Factor to Ground
  ,                                       !- Number of Vertices
  0, 0, 4,                                !- X,Y,Z Vertex 1 {m}
  0, 0, 0,                                !- X,Y,Z Vertex 2 {m}
  3, 3, 0,                                !- X,Y,Z Vertex 3 {m}
  3, 3, 4;                                !- X,Y,Z Vertex 4 {m}

OS:Surface,
  {4e643f8d-f520-46b6-a7e9-0f573cfc8793}, !- Handle
  Surface 6,                              !- Name
  RoofCeiling,                            !- Surface Type
  ,                                       !- Construction Name
  {6a9c3e65-d588-4f01-9926-a1e7482caa53}, !- Space Name
  Surface,                                !- Outside Boundary Condition
  {1ab5469b-aa98-4b6e-ab7e-c2872de31a29}, !- Outside Boundary Condition Object
  NoSun,                                  !- Sun Exposure
  NoWind,                                 !- Wind Exposure
  ,                                       !- View Factor to Ground
  ,                                       !- Number of Vertices
  3, 3, 4,                                !- X,Y,Z Vertex 1 {m}
  3, 12.8113883008419, 4,                 !- X,Y,Z Vertex 2 {m}
  0, 15.8113883008419, 4,                 !- X,Y,Z Vertex 3 {m}
  0, 0, 4;                                !- X,Y,Z Vertex 4 {m}

OS:Space,
  {39f1097c-6a5e-4b22-aa64-3b4a82dd59c9}, !- Handle
  Story 1 North Perimeter Space,          !- Name
  ,                                       !- Space Type Name
  ,                                       !- Default Construction Set Name
  ,                                       !- Default Schedule Set Name
  -0,                                     !- Direction of Relative North {deg}
  3,                                      !- X Origin {m}
  12.8113883008419,                       !- Y Origin {m}
  0,                                      !- Z Origin {m}
  {fecf9779-0108-4def-aab7-1810d6e7d2fb}, !- Building Story Name
  {e6cc8f0c-3ce5-4deb-8077-13abc1923228}; !- Thermal Zone Name

OS:Surface,
  {489fb3b1-24ce-4129-b3ec-9ab11a4b54a6}, !- Handle
  Surface 7,                              !- Name
  Floor,                                  !- Surface Type
  ,                                       !- Construction Name
  {39f1097c-6a5e-4b22-aa64-3b4a82dd59c9}, !- Space Name
  Ground,                                 !- Outside Boundary Condition
  ,                                       !- Outside Boundary Condition Object
  NoSun,                                  !- Sun Exposure
  NoWind,                                 !- Wind Exposure
  ,                                       !- View Factor to Ground
  ,                                       !- Number of Vertices
  -3, 3, 0,                               !- X,Y,Z Vertex 1 {m}
  12.8113883008419, 3, 0,                 !- X,Y,Z Vertex 2 {m}
  9.8113883008419, 3.5527136788005e-15, 0, !- X,Y,Z Vertex 3 {m}
  0, 3.5527136788005e-15, 0;              !- X,Y,Z Vertex 4 {m}

OS:Surface,
  {f64d97d1-8831-482a-b074-75de0f2e546c}, !- Handle
  Surface 8,                              !- Name
  Wall,                                   !- Surface Type
  ,                                       !- Construction Name
  {39f1097c-6a5e-4b22-aa64-3b4a82dd59c9}, !- Space Name
  Outdoors,                               !- Outside Boundary Condition
  ,                                       !- Outside Boundary Condition Object
  SunExposed,                             !- Sun Exposure
  WindExposed,                            !- Wind Exposure
  ,                                       !- View Factor to Ground
  ,                                       !- Number of Vertices
  12.8113883008419, 3, 4,                 !- X,Y,Z Vertex 1 {m}
  12.8113883008419, 3, 0,                 !- X,Y,Z Vertex 2 {m}
  -3, 3, 0,                               !- X,Y,Z Vertex 3 {m}
  -3, 3, 4;                               !- X,Y,Z Vertex 4 {m}

OS:Surface,
  {dd63db8a-7f31-49c7-bab9-7ac96e256833}, !- Handle
  Surface 9,                              !- Name
  Wall,                                   !- Surface Type
  ,                                       !- Construction Name
  {39f1097c-6a5e-4b22-aa64-3b4a82dd59c9}, !- Space Name
  Surface,                                !- Outside Boundary Condition
  {88b6b193-99c3-4b42-a484-d76618242717}, !- Outside Boundary Condition Object
  NoSun,                                  !- Sun Exposure
  NoWind,                                 !- Wind Exposure
  ,                                       !- View Factor to Ground
  ,                                       !- Number of Vertices
  9.8113883008419, 3.5527136788005e-15, 4, !- X,Y,Z Vertex 1 {m}
  9.8113883008419, 3.5527136788005e-15, 0, !- X,Y,Z Vertex 2 {m}
  12.8113883008419, 3, 0,                 !- X,Y,Z Vertex 3 {m}
  12.8113883008419, 3, 4;                 !- X,Y,Z Vertex 4 {m}

OS:Surface,
  {08cd55ff-4aaa-45bf-a1d9-a74d220e7846}, !- Handle
  Surface 10,                             !- Name
  Wall,                                   !- Surface Type
  ,                                       !- Construction Name
  {39f1097c-6a5e-4b22-aa64-3b4a82dd59c9}, !- Space Name
  Surface,                                !- Outside Boundary Condition
  {30629ac6-54c7-4031-9471-59ef027ec08a}, !- Outside Boundary Condition Object
  NoSun,                                  !- Sun Exposure
  NoWind,                                 !- Wind Exposure
  ,                                       !- View Factor to Ground
  ,                                       !- Number of Vertices
  0, 3.5527136788005e-15, 4,              !- X,Y,Z Vertex 1 {m}
  0, 3.5527136788005e-15, 0,              !- X,Y,Z Vertex 2 {m}
  9.8113883008419, 3.5527136788005e-15, 0, !- X,Y,Z Vertex 3 {m}
  9.8113883008419, 3.5527136788005e-15, 4; !- X,Y,Z Vertex 4 {m}

OS:Surface,
  {7be25662-771c-4bf4-b280-833d093aa216}, !- Handle
  Surface 11,                             !- Name
  Wall,                                   !- Surface Type
  ,                                       !- Construction Name
  {39f1097c-6a5e-4b22-aa64-3b4a82dd59c9}, !- Space Name
  Surface,                                !- Outside Boundary Condition
  {9886beb6-5e95-48a3-854c-257559c350ee}, !- Outside Boundary Condition Object
  NoSun,                                  !- Sun Exposure
  NoWind,                                 !- Wind Exposure
  ,                                       !- View Factor to Ground
  ,                                       !- Number of Vertices
  -3, 3, 4,                               !- X,Y,Z Vertex 1 {m}
  -3, 3, 0,                               !- X,Y,Z Vertex 2 {m}
  0, 3.5527136788005e-15, 0,              !- X,Y,Z Vertex 3 {m}
  0, 3.5527136788005e-15, 4;              !- X,Y,Z Vertex 4 {m}

OS:Surface,
  {cd58b92e-dac5-4121-bd4a-5b81f5aa6ca0}, !- Handle
  Surface 12,                             !- Name
  RoofCeiling,                            !- Surface Type
  ,                                       !- Construction Name
  {39f1097c-6a5e-4b22-aa64-3b4a82dd59c9}, !- Space Name
  Surface,                                !- Outside Boundary Condition
  {3d3dc8e5-eb00-4274-9628-6991155bd051}, !- Outside Boundary Condition Object
  NoSun,                                  !- Sun Exposure
  NoWind,                                 !- Wind Exposure
  ,                                       !- View Factor to Ground
  ,                                       !- Number of Vertices
  0, 3.5527136788005e-15, 4,              !- X,Y,Z Vertex 1 {m}
  9.8113883008419, 3.5527136788005e-15, 4, !- X,Y,Z Vertex 2 {m}
  12.8113883008419, 3, 4,                 !- X,Y,Z Vertex 3 {m}
  -3, 3, 4;                               !- X,Y,Z Vertex 4 {m}

OS:Space,
  {a2e39b26-3feb-4536-be24-d9de746db7f4}, !- Handle
  Story 1 East Perimeter Space,           !- Name
  ,                                       !- Space Type Name
  ,                                       !- Default Construction Set Name
  ,                                       !- Default Schedule Set Name
  -0,                                     !- Direction of Relative North {deg}
  12.8113883008419,                       !- X Origin {m}
  3,                                      !- Y Origin {m}
  0,                                      !- Z Origin {m}
  {fecf9779-0108-4def-aab7-1810d6e7d2fb}, !- Building Story Name
  {a08cdedc-aef2-49b3-ae27-870a187b32ee}; !- Thermal Zone Name

OS:Surface,
  {eda74b3d-2ad8-4f86-95c9-b7430a760a52}, !- Handle
  Surface 13,                             !- Name
  Floor,                                  !- Surface Type
  ,                                       !- Construction Name
  {a2e39b26-3feb-4536-be24-d9de746db7f4}, !- Space Name
  Ground,                                 !- Outside Boundary Condition
  ,                                       !- Outside Boundary Condition Object
  NoSun,                                  !- Sun Exposure
  NoWind,                                 !- Wind Exposure
  ,                                       !- View Factor to Ground
  ,                                       !- Number of Vertices
  3, 12.8113883008419, 0,                 !- X,Y,Z Vertex 1 {m}
  3, -3, 0,                               !- X,Y,Z Vertex 2 {m}
  3.5527136788005e-15, 0, 0,              !- X,Y,Z Vertex 3 {m}
  3.5527136788005e-15, 9.8113883008419, 0; !- X,Y,Z Vertex 4 {m}

OS:Surface,
  {f8b3930d-3f15-47ed-8c8b-78a6b432211d}, !- Handle
  Surface 14,                             !- Name
  Wall,                                   !- Surface Type
  ,                                       !- Construction Name
  {a2e39b26-3feb-4536-be24-d9de746db7f4}, !- Space Name
  Outdoors,                               !- Outside Boundary Condition
  ,                                       !- Outside Boundary Condition Object
  SunExposed,                             !- Sun Exposure
  WindExposed,                            !- Wind Exposure
  ,                                       !- View Factor to Ground
  ,                                       !- Number of Vertices
  3, -3, 4,                               !- X,Y,Z Vertex 1 {m}
  3, -3, 0,                               !- X,Y,Z Vertex 2 {m}
  3, 12.8113883008419, 0,                 !- X,Y,Z Vertex 3 {m}
  3, 12.8113883008419, 4;                 !- X,Y,Z Vertex 4 {m}

OS:Surface,
  {edddbf87-3b7b-4836-9591-0413f51cc24b}, !- Handle
  Surface 15,                             !- Name
  Wall,                                   !- Surface Type
  ,                                       !- Construction Name
  {a2e39b26-3feb-4536-be24-d9de746db7f4}, !- Space Name
  Surface,                                !- Outside Boundary Condition
  {9ef403a4-db90-45bc-9d20-f81607303d54}, !- Outside Boundary Condition Object
  NoSun,                                  !- Sun Exposure
  NoWind,                                 !- Wind Exposure
  ,                                       !- View Factor to Ground
  ,                                       !- Number of Vertices
  3.5527136788005e-15, 0, 4,              !- X,Y,Z Vertex 1 {m}
  3.5527136788005e-15, 0, 0,              !- X,Y,Z Vertex 2 {m}
  3, -3, 0,                               !- X,Y,Z Vertex 3 {m}
  3, -3, 4;                               !- X,Y,Z Vertex 4 {m}

OS:Surface,
  {8d3a78ee-ee2b-4d62-a05d-eee53e21eed0}, !- Handle
  Surface 16,                             !- Name
  Wall,                                   !- Surface Type
  ,                                       !- Construction Name
  {a2e39b26-3feb-4536-be24-d9de746db7f4}, !- Space Name
  Surface,                                !- Outside Boundary Condition
  {c346ba66-2040-4bf6-b641-e779e791086b}, !- Outside Boundary Condition Object
  NoSun,                                  !- Sun Exposure
  NoWind,                                 !- Wind Exposure
  ,                                       !- View Factor to Ground
  ,                                       !- Number of Vertices
  3.5527136788005e-15, 9.8113883008419, 4, !- X,Y,Z Vertex 1 {m}
  3.5527136788005e-15, 9.8113883008419, 0, !- X,Y,Z Vertex 2 {m}
  3.5527136788005e-15, 0, 0,              !- X,Y,Z Vertex 3 {m}
  3.5527136788005e-15, 0, 4;              !- X,Y,Z Vertex 4 {m}

OS:Surface,
  {88b6b193-99c3-4b42-a484-d76618242717}, !- Handle
  Surface 17,                             !- Name
  Wall,                                   !- Surface Type
  ,                                       !- Construction Name
  {a2e39b26-3feb-4536-be24-d9de746db7f4}, !- Space Name
  Surface,                                !- Outside Boundary Condition
  {dd63db8a-7f31-49c7-bab9-7ac96e256833}, !- Outside Boundary Condition Object
  NoSun,                                  !- Sun Exposure
  NoWind,                                 !- Wind Exposure
  ,                                       !- View Factor to Ground
  ,                                       !- Number of Vertices
  3, 12.8113883008419, 4,                 !- X,Y,Z Vertex 1 {m}
  3, 12.8113883008419, 0,                 !- X,Y,Z Vertex 2 {m}
  3.5527136788005e-15, 9.8113883008419, 0, !- X,Y,Z Vertex 3 {m}
  3.5527136788005e-15, 9.8113883008419, 4; !- X,Y,Z Vertex 4 {m}

OS:Surface,
  {ad179952-db38-4468-ba6c-71ac245c022f}, !- Handle
  Surface 18,                             !- Name
  RoofCeiling,                            !- Surface Type
  ,                                       !- Construction Name
  {a2e39b26-3feb-4536-be24-d9de746db7f4}, !- Space Name
  Surface,                                !- Outside Boundary Condition
  {2b65b537-8b50-4f09-894c-799b5576625d}, !- Outside Boundary Condition Object
  NoSun,                                  !- Sun Exposure
  NoWind,                                 !- Wind Exposure
  ,                                       !- View Factor to Ground
  ,                                       !- Number of Vertices
  3.5527136788005e-15, 9.8113883008419, 4, !- X,Y,Z Vertex 1 {m}
  3.5527136788005e-15, 0, 4,              !- X,Y,Z Vertex 2 {m}
  3, -3, 4,                               !- X,Y,Z Vertex 3 {m}
  3, 12.8113883008419, 4;                 !- X,Y,Z Vertex 4 {m}

OS:Space,
  {acca0603-b449-46b3-bfb7-0fae30f5f972}, !- Handle
  Story 1 South Perimeter Space,          !- Name
  ,                                       !- Space Type Name
  ,                                       !- Default Construction Set Name
  ,                                       !- Default Schedule Set Name
  -0,                                     !- Direction of Relative North {deg}
  0,                                      !- X Origin {m}
  0,                                      !- Y Origin {m}
  0,                                      !- Z Origin {m}
  {fecf9779-0108-4def-aab7-1810d6e7d2fb}, !- Building Story Name
  {582d8ed5-5b84-4a04-ad53-9c58361989d3}; !- Thermal Zone Name

OS:Surface,
  {450ca836-2bed-4349-a3c3-53bc42f4a286}, !- Handle
  Surface 19,                             !- Name
  Floor,                                  !- Surface Type
  ,                                       !- Construction Name
  {acca0603-b449-46b3-bfb7-0fae30f5f972}, !- Space Name
  Ground,                                 !- Outside Boundary Condition
  ,                                       !- Outside Boundary Condition Object
  NoSun,                                  !- Sun Exposure
  NoWind,                                 !- Wind Exposure
  ,                                       !- View Factor to Ground
  ,                                       !- Number of Vertices
  15.8113883008419, 0, 0,                 !- X,Y,Z Vertex 1 {m}
  0, 0, 0,                                !- X,Y,Z Vertex 2 {m}
  3, 3, 0,                                !- X,Y,Z Vertex 3 {m}
  12.8113883008419, 3, 0;                 !- X,Y,Z Vertex 4 {m}

OS:Surface,
  {04041819-b974-419f-a9bc-79b24ff52599}, !- Handle
  Surface 20,                             !- Name
  Wall,                                   !- Surface Type
  ,                                       !- Construction Name
  {acca0603-b449-46b3-bfb7-0fae30f5f972}, !- Space Name
  Outdoors,                               !- Outside Boundary Condition
  ,                                       !- Outside Boundary Condition Object
  SunExposed,                             !- Sun Exposure
  WindExposed,                            !- Wind Exposure
  ,                                       !- View Factor to Ground
  ,                                       !- Number of Vertices
  0, 0, 4,                                !- X,Y,Z Vertex 1 {m}
  0, 0, 0,                                !- X,Y,Z Vertex 2 {m}
  15.8113883008419, 0, 0,                 !- X,Y,Z Vertex 3 {m}
  15.8113883008419, 0, 4;                 !- X,Y,Z Vertex 4 {m}

OS:Surface,
  {c064e8da-75b9-46d6-b6c7-b9538fe97eb8}, !- Handle
  Surface 21,                             !- Name
  Wall,                                   !- Surface Type
  ,                                       !- Construction Name
  {acca0603-b449-46b3-bfb7-0fae30f5f972}, !- Space Name
  Surface,                                !- Outside Boundary Condition
  {de5cc006-b541-41cf-b272-8aa0e54ef77d}, !- Outside Boundary Condition Object
  NoSun,                                  !- Sun Exposure
  NoWind,                                 !- Wind Exposure
  ,                                       !- View Factor to Ground
  ,                                       !- Number of Vertices
  3, 3, 4,                                !- X,Y,Z Vertex 1 {m}
  3, 3, 0,                                !- X,Y,Z Vertex 2 {m}
  0, 0, 0,                                !- X,Y,Z Vertex 3 {m}
  0, 0, 4;                                !- X,Y,Z Vertex 4 {m}

OS:Surface,
  {75b9ff41-8203-4d07-9858-81c8be95916a}, !- Handle
  Surface 22,                             !- Name
  Wall,                                   !- Surface Type
  ,                                       !- Construction Name
  {acca0603-b449-46b3-bfb7-0fae30f5f972}, !- Space Name
  Surface,                                !- Outside Boundary Condition
  {99e166bc-8ed2-4ebc-a6ab-b9e5a086e210}, !- Outside Boundary Condition Object
  NoSun,                                  !- Sun Exposure
  NoWind,                                 !- Wind Exposure
  ,                                       !- View Factor to Ground
  ,                                       !- Number of Vertices
  12.8113883008419, 3, 4,                 !- X,Y,Z Vertex 1 {m}
  12.8113883008419, 3, 0,                 !- X,Y,Z Vertex 2 {m}
  3, 3, 0,                                !- X,Y,Z Vertex 3 {m}
  3, 3, 4;                                !- X,Y,Z Vertex 4 {m}

OS:Surface,
  {9ef403a4-db90-45bc-9d20-f81607303d54}, !- Handle
  Surface 23,                             !- Name
  Wall,                                   !- Surface Type
  ,                                       !- Construction Name
  {acca0603-b449-46b3-bfb7-0fae30f5f972}, !- Space Name
  Surface,                                !- Outside Boundary Condition
  {edddbf87-3b7b-4836-9591-0413f51cc24b}, !- Outside Boundary Condition Object
  NoSun,                                  !- Sun Exposure
  NoWind,                                 !- Wind Exposure
  ,                                       !- View Factor to Ground
  ,                                       !- Number of Vertices
  15.8113883008419, 0, 4,                 !- X,Y,Z Vertex 1 {m}
  15.8113883008419, 0, 0,                 !- X,Y,Z Vertex 2 {m}
  12.8113883008419, 3, 0,                 !- X,Y,Z Vertex 3 {m}
  12.8113883008419, 3, 4;                 !- X,Y,Z Vertex 4 {m}

OS:Surface,
  {864c484c-4a6e-45a8-b764-439f79c7e2ee}, !- Handle
  Surface 24,                             !- Name
  RoofCeiling,                            !- Surface Type
  ,                                       !- Construction Name
  {acca0603-b449-46b3-bfb7-0fae30f5f972}, !- Space Name
  Surface,                                !- Outside Boundary Condition
  {387f6718-852d-426b-9ad1-8387eafd33a7}, !- Outside Boundary Condition Object
  NoSun,                                  !- Sun Exposure
  NoWind,                                 !- Wind Exposure
  ,                                       !- View Factor to Ground
  ,                                       !- Number of Vertices
  12.8113883008419, 3, 4,                 !- X,Y,Z Vertex 1 {m}
  3, 3, 4,                                !- X,Y,Z Vertex 2 {m}
  0, 0, 4,                                !- X,Y,Z Vertex 3 {m}
  15.8113883008419, 0, 4;                 !- X,Y,Z Vertex 4 {m}

OS:Space,
  {04f0a36b-5a50-40cd-a38d-e619948c4bd7}, !- Handle
  Story 1 Core Space,                     !- Name
  ,                                       !- Space Type Name
  ,                                       !- Default Construction Set Name
  ,                                       !- Default Schedule Set Name
  -0,                                     !- Direction of Relative North {deg}
  3,                                      !- X Origin {m}
  3,                                      !- Y Origin {m}
  0,                                      !- Z Origin {m}
  {fecf9779-0108-4def-aab7-1810d6e7d2fb}, !- Building Story Name
  {fc4ff697-0480-4da9-877b-aad1bda8d158}; !- Thermal Zone Name

OS:Surface,
  {3fb3409b-f303-4a83-ad14-1e0855e2d9c4}, !- Handle
  Surface 25,                             !- Name
  Floor,                                  !- Surface Type
  ,                                       !- Construction Name
  {04f0a36b-5a50-40cd-a38d-e619948c4bd7}, !- Space Name
  Ground,                                 !- Outside Boundary Condition
  ,                                       !- Outside Boundary Condition Object
  NoSun,                                  !- Sun Exposure
  NoWind,                                 !- Wind Exposure
  ,                                       !- View Factor to Ground
  ,                                       !- Number of Vertices
  0, 0, 0,                                !- X,Y,Z Vertex 1 {m}
  0, 9.8113883008419, 0,                  !- X,Y,Z Vertex 2 {m}
  9.8113883008419, 9.8113883008419, 0,    !- X,Y,Z Vertex 3 {m}
  9.8113883008419, 0, 0;                  !- X,Y,Z Vertex 4 {m}

OS:Surface,
  {7fb5c9b8-ccde-499a-a66a-0ecfcff12258}, !- Handle
  Surface 26,                             !- Name
  Wall,                                   !- Surface Type
  ,                                       !- Construction Name
  {04f0a36b-5a50-40cd-a38d-e619948c4bd7}, !- Space Name
  Surface,                                !- Outside Boundary Condition
  {01160242-3d63-4315-9f87-296724e2352a}, !- Outside Boundary Condition Object
  NoSun,                                  !- Sun Exposure
  NoWind,                                 !- Wind Exposure
  ,                                       !- View Factor to Ground
  ,                                       !- Number of Vertices
  0, 9.8113883008419, 4,                  !- X,Y,Z Vertex 1 {m}
  0, 9.8113883008419, 0,                  !- X,Y,Z Vertex 2 {m}
  0, 0, 0,                                !- X,Y,Z Vertex 3 {m}
  0, 0, 4;                                !- X,Y,Z Vertex 4 {m}

OS:Surface,
  {30629ac6-54c7-4031-9471-59ef027ec08a}, !- Handle
  Surface 27,                             !- Name
  Wall,                                   !- Surface Type
  ,                                       !- Construction Name
  {04f0a36b-5a50-40cd-a38d-e619948c4bd7}, !- Space Name
  Surface,                                !- Outside Boundary Condition
  {08cd55ff-4aaa-45bf-a1d9-a74d220e7846}, !- Outside Boundary Condition Object
  NoSun,                                  !- Sun Exposure
  NoWind,                                 !- Wind Exposure
  ,                                       !- View Factor to Ground
  ,                                       !- Number of Vertices
  9.8113883008419, 9.8113883008419, 4,    !- X,Y,Z Vertex 1 {m}
  9.8113883008419, 9.8113883008419, 0,    !- X,Y,Z Vertex 2 {m}
  0, 9.8113883008419, 0,                  !- X,Y,Z Vertex 3 {m}
  0, 9.8113883008419, 4;                  !- X,Y,Z Vertex 4 {m}

OS:Surface,
  {c346ba66-2040-4bf6-b641-e779e791086b}, !- Handle
  Surface 28,                             !- Name
  Wall,                                   !- Surface Type
  ,                                       !- Construction Name
  {04f0a36b-5a50-40cd-a38d-e619948c4bd7}, !- Space Name