
OS:Version,
  {8754716f-c70f-4933-83c7-af519a7e16d8}, !- Handle
  0.10.0;                                 !- Version Identifier

OS:BuildingStory,
  {6f17bffe-85b3-4313-8312-573af9c31a70}, !- Handle
  Story 1,                                !- Name
  0,                                      !- Nominal Z Coordinate {m}
  4,                                      !- Nominal Floor to Floor Height {m}
  ,                                       !- Default Construction Set Name
  ,                                       !- Default Schedule Set Name
  ;                                       !- Group Rendering Name

OS:Space,
  {41ea01b8-d4a2-4317-b590-f15a72a1df39}, !- Handle
  Story 1 West Perimeter Space,           !- Name
  ,                                       !- Space Type Name
  ,                                       !- Default Construction Set Name
  ,                                       !- Default Schedule Set Name
  -0,                                     !- Direction of Relative North {deg}
  0,                                      !- X Origin {m}
  0,                                      !- Y Origin {m}
  0,                                      !- Z Origin {m}
  {6f17bffe-85b3-4313-8312-573af9c31a70}, !- Building Story Name
  {e7990a0b-42fd-4253-a86d-fd0ada185ecd}; !- Thermal Zone Name

OS:Surface,
  {f86563b9-562f-4999-8955-2f8b7ae34fe5}, !- Handle
  Surface 1,                              !- Name
  Floor,                                  !- Surface Type
  ,                                       !- Construction Name
  {41ea01b8-d4a2-4317-b590-f15a72a1df39}, !- Space Name
  Ground,                                 !- Outside Boundary Condition
  ,                                       !- Outside Boundary Condition Object
  NoSun,                                  !- Sun Exposure
  NoWind,                                 !- Wind Exposure
  ,                                       !- View Factor to Ground
  ,                                       !- Number of Vertices
  0, 0, 0,                                !- X,Y,Z Vertex 1 {m}
  0, 19.94993734326, 0,                   !- X,Y,Z Vertex 2 {m}
  3, 16.94993734326, 0,                   !- X,Y,Z Vertex 3 {m}
  3, 3, 0;                                !- X,Y,Z Vertex 4 {m}

OS:Surface,
  {11aee0bf-eb7d-4681-899b-53aee90e4340}, !- Handle
  Surface 2,                              !- Name
  Wall,                                   !- Surface Type
  ,                                       !- Construction Name
  {41ea01b8-d4a2-4317-b590-f15a72a1df39}, !- Space Name
  Outdoors,                               !- Outside Boundary Condition
  ,                                       !- Outside Boundary Condition Object
  SunExposed,                             !- Sun Exposure
  WindExposed,                            !- Wind Exposure
  ,                                       !- View Factor to Ground
  ,                                       !- Number of Vertices
  0, 19.94993734326, 4,                   !- X,Y,Z Vertex 1 {m}
  0, 19.94993734326, 0,                   !- X,Y,Z Vertex 2 {m}
  0, 0, 0,                                !- X,Y,Z Vertex 3 {m}
  0, 0, 4;                                !- X,Y,Z Vertex 4 {m}

OS:Surface,
  {7924c7b9-35b4-45a6-ab77-e4fa8522e532}, !- Handle
  Surface 3,                              !- Name
  Wall,                                   !- Surface Type
  ,                                       !- Construction Name
  {41ea01b8-d4a2-4317-b590-f15a72a1df39}, !- Space Name
  Surface,                                !- Outside Boundary Condition
  {438283c1-c8a1-4006-b1e9-e74ed7102b5f}, !- Outside Boundary Condition Object
  NoSun,                                  !- Sun Exposure
  NoWind,                                 !- Wind Exposure
  ,                                       !- View Factor to Ground
  ,                                       !- Number of Vertices
  3, 16.94993734326, 4,                   !- X,Y,Z Vertex 1 {m}
  3, 16.94993734326, 0,                   !- X,Y,Z Vertex 2 {m}
  0, 19.94993734326, 0,                   !- X,Y,Z Vertex 3 {m}
  0, 19.94993734326, 4;                   !- X,Y,Z Vertex 4 {m}

OS:Surface,
  {941df944-8c85-42c2-bab0-a28f3191d50f}, !- Handle
  Surface 4,                              !- Name
  Wall,                                   !- Surface Type
  ,                                       !- Construction Name
  {41ea01b8-d4a2-4317-b590-f15a72a1df39}, !- Space Name
  Surface,                                !- Outside Boundary Condition
  {10c303a5-3665-40a5-8714-60828705fbf8}, !- Outside Boundary Condition Object
  NoSun,                                  !- Sun Exposure
  NoWind,                                 !- Wind Exposure
  ,                                       !- View Factor to Ground
  ,                                       !- Number of Vertices
  3, 3, 4,                                !- X,Y,Z Vertex 1 {m}
  3, 3, 0,                                !- X,Y,Z Vertex 2 {m}
  3, 16.94993734326, 0,                   !- X,Y,Z Vertex 3 {m}
  3, 16.94993734326, 4;                   !- X,Y,Z Vertex 4 {m}

OS:Surface,
  {349fcd26-8622-42c7-a78e-b8331dc5990e}, !- Handle
  Surface 5,                              !- Name
  Wall,                                   !- Surface Type
  ,                                       !- Construction Name
  {41ea01b8-d4a2-4317-b590-f15a72a1df39}, !- Space Name
  Surface,                                !- Outside Boundary Condition
  {f2566407-340a-419d-b722-59c8bde984bd}, !- Outside Boundary Condition Object
  NoSun,                                  !- Sun Exposure
  NoWind,                                 !- Wind Exposure
  ,                                       !- View Factor to Ground
  ,                                       !- Number of Vertices
  0, 0, 4,                                !- X,Y,Z Vertex 1 {m}
  0, 0, 0,                                !- X,Y,Z Vertex 2 {m}
  3, 3, 0,                                !- X,Y,Z Vertex 3 {m}
  3, 3, 4;                                !- X,Y,Z Vertex 4 {m}

OS:Surface,
  {6ff6d069-f967-4273-ba0b-24ef50d63e17}, !- Handle
  Surface 6,                              !- Name
  RoofCeiling,                            !- Surface Type
  ,                                       !- Construction Name
  {41ea01b8-d4a2-4317-b590-f15a72a1df39}, !- Space Name
  Outdoors,                               !- Outside Boundary Condition
  ,                                       !- Outside Boundary Condition Object
  SunExposed,                             !- Sun Exposure
  WindExposed,                            !- Wind Exposure
  ,                                       !- View Factor to Ground
  ,                                       !- Number of Vertices
  3, 3, 4,                                !- X,Y,Z Vertex 1 {m}
  3, 16.94993734326, 4,                   !- X,Y,Z Vertex 2 {m}
  0, 19.94993734326, 4,                   !- X,Y,Z Vertex 3 {m}
  0, 0, 4;                                !- X,Y,Z Vertex 4 {m}

OS:Space,
  {932381dd-8b30-4475-b4a2-7ea2b1f9c36e}, !- Handle
  Story 1 North Perimeter Space,          !- Name
  ,                                       !- Space Type Name
  ,                                       !- Default Construction Set Name
  ,                                       !- Default Schedule Set Name
  -0,                                     !- Direction of Relative North {deg}
  3,                                      !- X Origin {m}
  16.94993734326,                         !- Y Origin {m}
  0,                                      !- Z Origin {m}
  {6f17bffe-85b3-4313-8312-573af9c31a70}, !- Building Story Name
  {9fa916b4-4547-46a5-8b00-bb52cf7f79d7}; !- Thermal Zone Name

OS:Surface,
  {32190b19-5e0d-4889-b82e-dc89877db23c}, !- Handle
  Surface 7,                              !- Name
  Floor,                                  !- Surface Type
  ,                                       !- Construction Name
  {932381dd-8b30-4475-b4a2-7ea2b1f9c36e}, !- Space Name
  Ground,                                 !- Outside Boundary Condition
  ,                                       !- Outside Boundary Condition Object
  NoSun,                                  !- Sun Exposure
  NoWind,                                 !- Wind Exposure
  ,                                       !- View Factor to Ground
  ,                                       !- Number of Vertices
  -3, 3, 0,                               !- X,Y,Z Vertex 1 {m}
  16.94993734326, 3, 0,                   !- X,Y,Z Vertex 2 {m}
  13.94993734326, -3.5527136788005e-15, 0, !- X,Y,Z Vertex 3 {m}
  0, -3.5527136788005e-15, 0;             !- X,Y,Z Vertex 4 {m}

OS:Surface,
  {706d4450-db67-4ede-a53f-2067c6e31a20}, !- Handle
  Surface 8,                              !- Name
  Wall,                                   !- Surface Type
  ,                                       !- Construction Name
  {932381dd-8b30-4475-b4a2-7ea2b1f9c36e}, !- Space Name
  Outdoors,                               !- Outside Boundary Condition
  ,                                       !- Outside Boundary Condition Object
  SunExposed,                             !- Sun Exposure
  WindExposed,                            !- Wind Exposure
  ,                                       !- View Factor to Ground
  ,                                       !- Number of Vertices
  16.94993734326, 3, 4,                   !- X,Y,Z Vertex 1 {m}
  16.94993734326, 3, 0,                   !- X,Y,Z Vertex 2 {m}
  -3, 3, 0,                               !- X,Y,Z Vertex 3 {m}
  -3, 3, 4;                               !- X,Y,Z Vertex 4 {m}

OS:Surface,
  {0753d02e-9f96-4794-8ccf-c29213d545ef}, !- Handle
  Surface 9,                              !- Name
  Wall,                                   !- Surface Type
  ,                                       !- Construction Name
  {932381dd-8b30-4475-b4a2-7ea2b1f9c36e}, !- Space Name
  Surface,                                !- Outside Boundary Condition
  {1b6f9327-958c-4916-b723-c42e693b0b90}, !- Outside Boundary Condition Object
  NoSun,                                  !- Sun Exposure
  NoWind,                                 !- Wind Exposure
  ,                                       !- View Factor to Ground
  ,                                       !- Number of Vertices
  13.94993734326, -3.5527136788005e-15, 4, !- X,Y,Z Vertex 1 {m}
  13.94993734326, -3.5527136788005e-15, 0, !- X,Y,Z Vertex 2 {m}
  16.94993734326, 3, 0,                   !- X,Y,Z Vertex 3 {m}
  16.94993734326, 3, 4;                   !- X,Y,Z Vertex 4 {m}

OS:Surface,
  {2d139f2c-dab4-487d-acd7-556974981e13}, !- Handle
  Surface 10,                             !- Name
  Wall,                                   !- Surface Type
  ,                                       !- Construction Name
  {932381dd-8b30-4475-b4a2-7ea2b1f9c36e}, !- Space Name
  Surface,                                !- Outside Boundary Condition
  {9817c2bc-ed79-4e53-b8ea-526b43d13302}, !- Outside Boundary Condition Object
  NoSun,                                  !- Sun Exposure
  NoWind,                                 !- Wind Exposure
  ,                                       !- View Factor to Ground
  ,                                       !- Number of Vertices
  0, -3.5527136788005e-15, 4,             !- X,Y,Z Vertex 1 {m}
  0, -3.5527136788005e-15, 0,             !- X,Y,Z Vertex 2 {m}
  13.94993734326, -3.5527136788005e-15, 0, !- X,Y,Z Vertex 3 {m}
  13.94993734326, -3.5527136788005e-15, 4; !- X,Y,Z Vertex 4 {m}

OS:Surface,
  {438283c1-c8a1-4006-b1e9-e74ed7102b5f}, !- Handle
  Surface 11,                             !- Name
  Wall,                                   !- Surface Type
  ,                                       !- Construction Name
  {932381dd-8b30-4475-b4a2-7ea2b1f9c36e}, !- Space Name
  Surface,                                !- Outside Boundary Condition
  {7924c7b9-35b4-45a6-ab77-e4fa8522e532}, !- Outside Boundary Condition Object
  NoSun,                                  !- Sun Exposure
  NoWind,                                 !- Wind Exposure
  ,                                       !- View Factor to Ground
  ,                                       !- Number of Vertices
  -3, 3, 4,                               !- X,Y,Z Vertex 1 {m}
  -3, 3, 0,                               !- X,Y,Z Vertex 2 {m}
  0, -3.5527136788005e-15, 0,             !- X,Y,Z Vertex 3 {m}
  0, -3.5527136788005e-15, 4;             !- X,Y,Z Vertex 4 {m}

OS:Surface,
  {06ec262b-b93a-4cd0-b2cc-e894c5e919d9}, !- Handle
  Surface 12,                             !- Name
  RoofCeiling,                            !- Surface Type
  ,                                       !- Construction Name
  {932381dd-8b30-4475-b4a2-7ea2b1f9c36e}, !- Space Name
  Outdoors,                               !- Outside Boundary Condition
  ,                                       !- Outside Boundary Condition Object
  SunExposed,                             !- Sun Exposure
  WindExposed,                            !- Wind Exposure
  ,                                       !- View Factor to Ground
  ,                                       !- Number of Vertices
  0, -3.5527136788005e-15, 4,             !- X,Y,Z Vertex 1 {m}
  13.94993734326, -3.5527136788005e-15, 4, !- X,Y,Z Vertex 2 {m}
  16.94993734326, 3, 4,                   !- X,Y,Z Vertex 3 {m}
  -3, 3, 4;                               !- X,Y,Z Vertex 4 {m}

OS:Space,
  {576af837-bacd-4ae0-bc9c-d682db4a8ec4}, !- Handle
  Story 1 East Perimeter Space,           !- Name
  ,                                       !- Space Type Name
  ,                                       !- Default Construction Set Name
  ,                                       !- Default Schedule Set Name
  -0,                                     !- Direction of Relative North {deg}
  16.94993734326,                         !- X Origin {m}
  3,                                      !- Y Origin {m}
  0,                                      !- Z Origin {m}
  {6f17bffe-85b3-4313-8312-573af9c31a70}, !- Building Story Name
  {020ede2d-1888-4b5e-bd0e-9fa00111ee9e}; !- Thermal Zone Name

OS:Surface,
  {a985617a-5b6e-4cf6-808d-a78a6e45446a}, !- Handle
  Surface 13,                             !- Name
  Floor,                                  !- Surface Type
  ,                                       !- Construction Name
  {576af837-bacd-4ae0-bc9c-d682db4a8ec4}, !- Space Name
  Ground,                                 !- Outside Boundary Condition
  ,                                       !- Outside Boundary Condition Object
  NoSun,                                  !- Sun Exposure
  NoWind,                                 !- Wind Exposure
  ,                                       !- View Factor to Ground
  ,                                       !- Number of Vertices
  3, 16.94993734326, 0,                   !- X,Y,Z Vertex 1 {m}
  3, -3, 0,                               !- X,Y,Z Vertex 2 {m}
  -3.5527136788005e-15, 0, 0,             !- X,Y,Z Vertex 3 {m}
  -3.5527136788005e-15, 13.94993734326, 0; !- X,Y,Z Vertex 4 {m}

OS:Surface,
  {74713c2c-3e5b-4c31-b38b-3c5e3fc028d6}, !- Handle
  Surface 14,                             !- Name
  Wall,                                   !- Surface Type
  ,                                       !- Construction Name
  {576af837-bacd-4ae0-bc9c-d682db4a8ec4}, !- Space Name
  Outdoors,                               !- Outside Boundary Condition
  ,                                       !- Outside Boundary Condition Object
  SunExposed,                             !- Sun Exposure
  WindExposed,                            !- Wind Exposure
  ,                                       !- View Factor to Ground
  ,                                       !- Number of Vertices
  3, -3, 4,                               !- X,Y,Z Vertex 1 {m}
  3, -3, 0,                               !- X,Y,Z Vertex 2 {m}
  3, 16.94993734326, 0,                   !- X,Y,Z Vertex 3 {m}
  3, 16.94993734326, 4;                   !- X,Y,Z Vertex 4 {m}

OS:Surface,
  {491b2467-ec41-4cd1-9b9f-cd663a723739}, !- Handle
  Surface 15,                             !- Name
  Wall,                                   !- Surface Type
  ,                                       !- Construction Name
  {576af837-bacd-4ae0-bc9c-d682db4a8ec4}, !- Space Name
  Surface,                                !- Outside Boundary Condition
  {99deb6cf-bef7-4cfb-856f-731ccf04300b}, !- Outside Boundary Condition Object
  NoSun,                                  !- Sun Exposure
  NoWind,                                 !- Wind Exposure
  ,                                       !- View Factor to Ground
  ,                                       !- Number of Vertices
  -3.5527136788005e-15, 0, 4,             !- X,Y,Z Vertex 1 {m}
  -3.5527136788005e-15, 0, 0,             !- X,Y,Z Vertex 2 {m}
  3, -3, 0,                               !- X,Y,Z Vertex 3 {m}
  3, -3, 4;                               !- X,Y,Z Vertex 4 {m}

OS:Surface,
  {b8bdce19-d9bb-40dd-b235-9f94ee85a090}, !- Handle
  Surface 16,                             !- Name
  Wall,                                   !- Surface Type
  ,                                       !- Construction Name
  {576af837-bacd-4ae0-bc9c-d682db4a8ec4}, !- Space Name
  Surface,                                !- Outside Boundary Condition
  {7ef67398-fada-4592-bff7-a9ca217b4f40}, !- Outside Boundary Condition Object
  NoSun,                                  !- Sun Exposure
  NoWind,                                 !- Wind Exposure
  ,                                       !- View Factor to Ground
  ,                                       !- Number of Vertices
  -3.5527136788005e-15, 13.94993734326, 4, !- X,Y,Z Vertex 1 {m}
  -3.5527136788005e-15, 13.94993734326, 0, !- X,Y,Z Vertex 2 {m}
  -3.5527136788005e-15, 0, 0,             !- X,Y,Z Vertex 3 {m}
  -3.5527136788005e-15, 0, 4;             !- X,Y,Z Vertex 4 {m}

OS:Surface,
  {1b6f9327-958c-4916-b723-c42e693b0b90}, !- Handle
  Surface 17,                             !- Name
  Wall,                                   !- Surface Type
  ,                                       !- Construction Name
  {576af837-bacd-4ae0-bc9c-d682db4a8ec4}, !- Space Name
  Surface,                                !- Outside Boundary Condition
  {0753d02e-9f96-4794-8ccf-c29213d545ef}, !- Outside Boundary Condition Object
  NoSun,                                  !- Sun Exposure
  NoWind,                                 !- Wind Exposure
  ,                                       !- View Factor to Ground
  ,                                       !- Number of Vertices
  3, 16.94993734326, 4,                   !- X,Y,Z Vertex 1 {m}
  3, 16.94993734326, 0,                   !- X,Y,Z Vertex 2 {m}
  -3.5527136788005e-15, 13.94993734326, 0, !- X,Y,Z Vertex 3 {m}
  -3.5527136788005e-15, 13.94993734326, 4; !- X,Y,Z Vertex 4 {m}

OS:Surface,
  {87094875-0448-4c8d-8fdf-13272c4c5edd}, !- Handle
  Surface 18,                             !- Name
  RoofCeiling,                            !- Surface Type
  ,                                       !- Construction Name
  {576af837-bacd-4ae0-bc9c-d682db4a8ec4}, !- Space Name
  Outdoors,                               !- Outside Boundary Condition
  ,                                       !- Outside Boundary Condition Object
  SunExposed,                             !- Sun Exposure
  WindExposed,                            !- Wind Exposure
  ,                                       !- View Factor to Ground
  ,                                       !- Number of Vertices
  -3.5527136788005e-15, 13.94993734326, 4, !- X,Y,Z Vertex 1 {m}
  -3.5527136788005e-15, 0, 4,             !- X,Y,Z Vertex 2 {m}
  3, -3, 4,                               !- X,Y,Z Vertex 3 {m}
  3, 16.94993734326, 4;                   !- X,Y,Z Vertex 4 {m}

OS:Space,
  {3164a2ed-4be5-4212-afdf-92c6d3b4791f}, !- Handle
  Story 1 South Perimeter Space,          !- Name
  ,                                       !- Space Type Name
  ,                                       !- Default Construction Set Name
  ,                                       !- Default Schedule Set Name
  -0,                                     !- Direction of Relative North {deg}
  0,                                      !- X Origin {m}
  0,                                      !- Y Origin {m}
  0,                                      !- Z Origin {m}
  {6f17bffe-85b3-4313-8312-573af9c31a70}, !- Building Story Name
  {6d1af1fa-c282-46d5-8adc-6f47a3942489}; !- Thermal Zone Name

OS:Surface,
  {a59f8a08-d54a-4b1b-9800-61ee0dfe491b}, !- Handle
  Surface 19,                             !- Name
  Floor,                                  !- Surface Type
  ,                                       !- Construction Name
  {3164a2ed-4be5-4212-afdf-92c6d3b4791f}, !- Space Name
  Ground,                                 !- Outside Boundary Condition
  ,                                       !- Outside Boundary Condition Object
  NoSun,                                  !- Sun Exposure
  NoWind,                                 !- Wind Exposure
  ,                                       !- View Factor to Ground
  ,                                       !- Number of Vertices
  19.94993734326, 0, 0,                   !- X,Y,Z Vertex 1 {m}
  0, 0, 0,                                !- X,Y,Z Vertex 2 {m}
  3, 3, 0,                                !- X,Y,Z Vertex 3 {m}
  16.94993734326, 3, 0;                   !- X,Y,Z Vertex 4 {m}

OS:Surface,
  {426ea8a4-6919-4420-8aea-7f48a7eba5d4}, !- Handle
  Surface 20,                             !- Name
  Wall,                                   !- Surface Type
  ,                                       !- Construction Name
  {3164a2ed-4be5-4212-afdf-92c6d3b4791f}, !- Space Name
  Outdoors,                               !- Outside Boundary Condition
  ,                                       !- Outside Boundary Condition Object
  SunExposed,                             !- Sun Exposure
  WindExposed,                            !- Wind Exposure
  ,                                       !- View Factor to Ground
  ,                                       !- Number of Vertices
  0, 0, 4,                                !- X,Y,Z Vertex 1 {m}
  0, 0, 0,                                !- X,Y,Z Vertex 2 {m}
  19.94993734326, 0, 0,                   !- X,Y,Z Vertex 3 {m}
  19.94993734326, 0, 4;                   !- X,Y,Z Vertex 4 {m}

OS:Surface,
  {f2566407-340a-419d-b722-59c8bde984bd}, !- Handle
  Surface 21,                             !- Name
  Wall,                                   !- Surface Type
  ,                                       !- Construction Name
  {3164a2ed-4be5-4212-afdf-92c6d3b4791f}, !- Space Name
  Surface,                                !- Outside Boundary Condition
  {349fcd26-8622-42c7-a78e-b8331dc5990e}, !- Outside Boundary Condition Object
  NoSun,                                  !- Sun Exposure
  NoWind,                                 !- Wind Exposure
  ,                                       !- View Factor to Ground
  ,                                       !- Number of Vertices
  3, 3, 4,                                !- X,Y,Z Vertex 1 {m}
  3, 3, 0,                                !- X,Y,Z Vertex 2 {m}
  0, 0, 0,                                !- X,Y,Z Vertex 3 {m}
  0, 0, 4;                                !- X,Y,Z Vertex 4 {m}

OS:Surface,
  {53b880aa-149d-4996-a9ba-68e5d8b96be2}, !- Handle
  Surface 22,                             !- Name
  Wall,                                   !- Surface Type
  ,                                       !- Construction Name
  {3164a2ed-4be5-4212-afdf-92c6d3b4791f}, !- Space Name
  Surface,                                !- Outside Boundary Condition
  {e43d2686-9283-4c57-9283-50e0d339f860}, !- Outside Boundary Condition Object
  NoSun,                                  !- Sun Exposure
  NoWind,                                 !- Wind Exposure
  ,                                       !- View Factor to Ground
  ,                                       !- Number of Vertices
  16.94993734326, 3, 4,                   !- X,Y,Z Vertex 1 {m}
  16.94993734326, 3, 0,                   !- X,Y,Z Vertex 2 {m}
  3, 3, 0,                                !- X,Y,Z Vertex 3 {m}
  3, 3, 4;                                !- X,Y,Z Vertex 4 {m}

OS:Surface,
  {99deb6cf-bef7-4cfb-856f-731ccf04300b}, !- Handle
  Surface 23,                             !- Name
  Wall,                                   !- Surface Type
  ,                                       !- Construction Name
  {3164a2ed-4be5-4212-afdf-92c6d3b4791f}, !- Space Name
  Surface,                                !- Outside Boundary Condition
  {491b2467-ec41-4cd1-9b9f-cd663a723739}, !- Outside Boundary Condition Object
  NoSun,                                  !- Sun Exposure
  NoWind,                                 !- Wind Exposure
  ,                                       !- View Factor to Ground
  ,                                       !- Number of Vertices
  19.94993734326, 0, 4,                   !- X,Y,Z Vertex 1 {m}
  19.94993734326, 0, 0,                   !- X,Y,Z Vertex 2 {m}
  16.94993734326, 3, 0,                   !- X,Y,Z Vertex 3 {m}
  16.94993734326, 3, 4;                   !- X,Y,Z Vertex 4 {m}

OS:Surface,
  {ad120d61-c50f-4d63-867f-e641adbeb104}, !- Handle
  Surface 24,                             !- Name
  RoofCeiling,                            !- Surface Type
  ,                                       !- Construction Name
  {3164a2ed-4be5-4212-afdf-92c6d3b4791f}, !- Space Name
  Outdoors,                               !- Outside Boundary Condition
  ,                                       !- Outside Boundary Condition Object
  SunExposed,                             !- Sun Exposure
  WindExposed,                            !- Wind Exposure
  ,                                       !- View Factor to Ground
  ,                                       !- Number of Vertices
  16.94993734326, 3, 4,                   !- X,Y,Z Vertex 1 {m}
  3, 3, 4,                                !- X,Y,Z Vertex 2 {m}
  0, 0, 4,                                !- X,Y,Z Vertex 3 {m}
  19.94993734326, 0, 4;                   !- X,Y,Z Vertex 4 {m}

OS:Space,
  {e77e71c6-7882-463e-95c0-d5b9f02e2c20}, !- Handle
  Story 1 Core Space,                     !- Name
  ,                                       !- Space Type Name
  ,                                       !- Default Construction Set Name
  ,                                       !- Default Schedule Set Name
  -0,                                     !- Direction of Relative North {deg}
  3,                                      !- X Origin {m}
  3,                                      !- Y Origin {m}
  0,                                      !- Z Origin {m}
  {6f17bffe-85b3-4313-8312-573af9c31a70}, !- Building Story Name
  {d9617732-0626-43b3-808d-8beca1323fbd}; !- Thermal Zone Name

OS:Surface,
  {e891ad43-3c6e-4f25-a8b3-10975394d5ca}, !- Handle
  Surface 25,                             !- Name
  Floor,                                  !- Surface Type
  ,                                       !- Construction Name
  {e77e71c6-7882-463e-95c0-d5b9f02e2c20}, !- Space Name
  Ground,                                 !- Outside Boundary Condition
  ,                                       !- Outside Boundary Condition Object
  NoSun,                                  !- Sun Exposure
  NoWind,                                 !- Wind Exposure
  ,                                       !- View Factor to Ground
  ,                                       !- Number of Vertices
  0, 0, 0,                                !- X,Y,Z Vertex 1 {m}
  0, 13.94993734326, 0,                   !- X,Y,Z Vertex 2 {m}
  13.94993734326, 13.94993734326, 0,      !- X,Y,Z Vertex 3 {m}
  13.94993734326, 0, 0;                   !- X,Y,Z Vertex 4 {m}

OS:Surface,
  {10c303a5-3665-40a5-8714-60828705fbf8}, !- Handle
  Surface 26,                             !- Name
  Wall,                                   !- Surface Type
  ,                                       !- Construction Name
  {e77e71c6-7882-463e-95c0-d5b9f02e2c20}, !- Space Name
  Surface,                                !- Outside Boundary Condition
  {941df944-8c85-42c2-bab0-a28f3191d50f}, !- Outside Boundary Condition Object
  NoSun,                                  !- Sun Exposure
  NoWind,                                 !- Wind Exposure
  ,                                       !- View Factor to Ground
  ,                                       !- Number of Vertices
  0, 13.94993734326, 4,                   !- X,Y,Z Vertex 1 {m}
  0, 13.94993734326, 0,                   !- X,Y,Z Vertex 2 {m}
  0, 0, 0,                                !- X,Y,Z Vertex 3 {m}
  0, 0, 4;                                !- X,Y,Z Vertex 4 {m}

OS:Surface,
  {9817c2bc-ed79-4e53-b8ea-526b43d13302}, !- Handle
  Surface 27,                             !- Name
  Wall,                                   !- Surface Type
  ,                                       !- Construction Name
  {e77e71c6-7882-463e-95c0-d5b9f02e2c20}, !- Space Name
  Surface,                                !- Outside Boundary Condition
  {2d139f2c-dab4-487d-acd7-556974981e13}, !- Outside Boundary Condition Object
  NoSun,                                  !- Sun Exposure
  NoWind,                                 !- Wind Exposure
  ,                                       !- View Factor to Ground
  ,                                       !- Number of Vertices
  13.94993734326, 13.94993734326, 4,      !- X,Y,Z Vertex 1 {m}
  13.94993734326, 13.94993734326, 0,      !- X,Y,Z Vertex 2 {m}
  0, 13.94993734326, 0,                   !- X,Y,Z Vertex 3 {m}
  0, 13.94993734326, 4;                   !- X,Y,Z Vertex 4 {m}

OS:Surface,
  {7ef67398-fada-4592-bff7-a9ca217b4f40}, !- Handle
  Surface 28,                             !- Name
  Wall,                                   !- Surface Type
  ,                                       !- Construction Name
  {e77e71c6-7882-463e-95c0-d5b9f02e2c20}, !- Space Name