
OS:Version,
  {827a15f3-2bd0-4c65-aca8-39d7a8322bf1}, !- Handle
  0.10.0;                                 !- Version Identifier

OS:BuildingStory,
  {9635be9b-2c28-4502-acf9-781c2c2bb84e}, !- Handle
  Story 1,                                !- Name
  0,                                      !- Nominal Z Coordinate {m}
  4,                                      !- Nominal Floor to Floor Height {m}
  ,                                       !- Default Construction Set Name
  ,                                       !- Default Schedule Set Name
  ;                                       !- Group Rendering Name

OS:Space,
  {3a28bb71-c0df-40cb-bdae-6517f4c762ea}, !- Handle
  Story 1 West Perimeter Space,           !- Name
  ,                                       !- Space Type Name
  ,                                       !- Default Construction Set Name
  ,                                       !- Default Schedule Set Name
  -0,                                     !- Direction of Relative North {deg}
  0,                                      !- X Origin {m}
  0,                                      !- Y Origin {m}
  0,                                      !- Z Origin {m}
  {9635be9b-2c28-4502-acf9-781c2c2bb84e}, !- Building Story Name
  {eef49e95-18b6-4f94-8936-e5e42cb0827d}; !- Thermal Zone Name

OS:Surface,
  {fd99a2be-343e-487a-8bd3-35ab7cc030d0}, !- Handle
  Surface 1,                              !- Name
  Floor,                                  !- Surface Type
  ,                                       !- Construction Name
  {3a28bb71-c0df-40cb-bdae-6517f4c762ea}, !- Space Name
  Ground,                                 !- Outside Boundary Condition
  ,                                       !- Outside Boundary Condition Object
  NoSun,                                  !- Sun Exposure
  NoWind,                                 !- Wind Exposure
  ,                                       !- View Factor to Ground
  ,                                       !- Number of Vertices
  0, 0, 0,                                !- X,Y,Z Vertex 1 {m}
  0, 17.6351920885484, 0,                 !- X,Y,Z Vertex 2 {m}
  3, 14.6351920885484, 0,                 !- X,Y,Z Vertex 3 {m}
  3, 3, 0;                                !- X,Y,Z Vertex 4 {m}

OS:Surface,
  {6c2bd427-e74a-43b0-92b1-92d6b0e02f5c}, !- Handle
  Surface 2,                              !- Name
  Wall,                                   !- Surface Type
  ,                                       !- Construction Name
  {3a28bb71-c0df-40cb-bdae-6517f4c762ea}, !- Space Name
  Outdoors,                               !- Outside Boundary Condition
  ,                                       !- Outside Boundary Condition Object
  SunExposed,                             !- Sun Exposure
  WindExposed,                            !- Wind Exposure
  ,                                       !- View Factor to Ground
  ,                                       !- Number of Vertices
  0, 17.6351920885484, 4,                 !- X,Y,Z Vertex 1 {m}
  0, 17.6351920885484, 0,                 !- X,Y,Z Vertex 2 {m}
  0, 0, 0,                                !- X,Y,Z Vertex 3 {m}
  0, 0, 4;                                !- X,Y,Z Vertex 4 {m}

OS:Surface,
  {1248fb46-4198-4179-bd49-88bdc23db987}, !- Handle
  Surface 3,                              !- Name
  Wall,                                   !- Surface Type
  ,                                       !- Construction Name
  {3a28bb71-c0df-40cb-bdae-6517f4c762ea}, !- Space Name
  Surface,                                !- Outside Boundary Condition
  {8b9c53d2-903d-4038-9ea9-5ac1608138c2}, !- Outside Boundary Condition Object
  NoSun,                                  !- Sun Exposure
  NoWind,                                 !- Wind Exposure
  ,                                       !- View Factor to Ground
  ,                                       !- Number of Vertices
  3, 14.6351920885484, 4,                 !- X,Y,Z Vertex 1 {m}
  3, 14.6351920885484, 0,                 !- X,Y,Z Vertex 2 {m}
  0, 17.6351920885484, 0,                 !- X,Y,Z Vertex 3 {m}
  0, 17.6351920885484, 4;                 !- X,Y,Z Vertex 4 {m}

OS:Surface,
  {b26eeb6b-90e0-4ae7-9841-cf46b0622537}, !- Handle
  Surface 4,                              !- Name
  Wall,                                   !- Surface Type
  ,                                       !- Construction Name
  {3a28bb71-c0df-40cb-bdae-6517f4c762ea}, !- Space Name
  Surface,                                !- Outside Boundary Condition
  {2fe16f10-9ddd-46f8-8ef2-264a186ae3a5}, !- Outside Boundary Condition Object
  NoSun,                                  !- Sun Exposure
  NoWind,                                 !- Wind Exposure
  ,                                       !- View Factor to Ground
  ,                                       !- Number of Vertices
  3, 3, 4,                                !- X,Y,Z Vertex 1 {m}
  3, 3, 0,                                !- X,Y,Z Vertex 2 {m}
  3, 14.6351920885484, 0,                 !- X,Y,Z Vertex 3 {m}
  3, 14.6351920885484, 4;                 !- X,Y,Z Vertex 4 {m}

OS:Surface,
  {f65e0d37-483a-48c6-bc0e-f1f9e6350c70}, !- Handle
  Surface 5,                              !- Name
  Wall,                                   !- Surface Type
  ,                                       !- Construction Name
  {3a28bb71-c0df-40cb-bdae-6517f4c762ea}, !- Space Name
  Surface,                                !- Outside Boundary Condition
  {e323cdfd-524d-48c7-84de-c3aaf38b6e79}, !- Outside Boundary Condition Object
  NoSun,                                  !- Sun Exposure
  NoWind,                                 !- Wind Exposure
  ,                                       !- View Factor to Ground
  ,                                       !- Number of Vertices
  0, 0, 4,                                !- X,Y,Z Vertex 1 {m}
  0, 0, 0,                                !- X,Y,Z Vertex 2 {m}
  3, 3, 0,                                !- X,Y,Z Vertex 3 {m}
  3, 3, 4;                                !- X,Y,Z Vertex 4 {m}

OS:Surface,
  {364dc0b4-351a-4927-8b72-dccc1ec62bcf}, !- Handle
  Surface 6,                              !- Name
  RoofCeiling,                            !- Surface Type
  ,                                       !- Construction Name
  {3a28bb71-c0df-40cb-bdae-6517f4c762ea}, !- Space Name
  Outdoors,                               !- Outside Boundary Condition
  ,                                       !- Outside Boundary Condition Object
  SunExposed,                             !- Sun Exposure
  WindExposed,                            !- Wind Exposure
  ,                                       !- View Factor to Ground
  ,                                       !- Number of Vertices
  3, 3, 4,                                !- X,Y,Z Vertex 1 {m}
  3, 14.6351920885484, 4,                 !- X,Y,Z Vertex 2 {m}
  0, 17.6351920885484, 4,                 !- X,Y,Z Vertex 3 {m}
  0, 0, 4;                                !- X,Y,Z Vertex 4 {m}

OS:Space,
  {fb7a43c1-a82f-41a7-8f4c-827a802566dd}, !- Handle
  Story 1 North Perimeter Space,          !- Name
  ,                                       !- Space Type Name
  ,                                       !- Default Construction Set Name
  ,                                       !- Default Schedule Set Name
  -0,                                     !- Direction of Relative North {deg}
  3,                                      !- X Origin {m}
  14.6351920885484,                       !- Y Origin {m}
  0,                                      !- Z Origin {m}
  {9635be9b-2c28-4502-acf9-781c2c2bb84e}, !- Building Story Name
  {0ece9f0a-accb-476b-b52d-9e3af4f1a69d}; !- Thermal Zone Name

OS:Surface,
  {fb2e4cca-212d-41f8-988c-d5ad0f55b8c8}, !- Handle
  Surface 7,                              !- Name
  Floor,                                  !- Surface Type
  ,                                       !- Construction Name
  {fb7a43c1-a82f-41a7-8f4c-827a802566dd}, !- Space Name
  Ground,                                 !- Outside Boundary Condition
  ,                                       !- Outside Boundary Condition Object
  NoSun,                                  !- Sun Exposure
  NoWind,                                 !- Wind Exposure
  ,                                       !- View Factor to Ground
  ,                                       !- Number of Vertices
  -3, 3, 0,                               !- X,Y,Z Vertex 1 {m}
  14.6351920885484, 3, 0,                 !- X,Y,Z Vertex 2 {m}
  11.6351920885484, 3.5527136788005e-15, 0, !- X,Y,Z Vertex 3 {m}
  0, 3.5527136788005e-15, 0;              !- X,Y,Z Vertex 4 {m}

OS:Surface,
  {0f8f615f-78fa-4e2f-945b-7fc9648ed306}, !- Handle
  Surface 8,                              !- Name
  Wall,                                   !- Surface Type
  ,                                       !- Construction Name
  {fb7a43c1-a82f-41a7-8f4c-827a802566dd}, !- Space Name
  Outdoors,                               !- Outside Boundary Condition
  ,                                       !- Outside Boundary Condition Object
  SunExposed,                             !- Sun Exposure
  WindExposed,                            !- Wind Exposure
  ,                                       !- View Factor to Ground
  ,                                       !- Number of Vertices
  14.6351920885484, 3, 4,                 !- X,Y,Z Vertex 1 {m}
  14.6351920885484, 3, 0,                 !- X,Y,Z Vertex 2 {m}
  -3, 3, 0,                               !- X,Y,Z Vertex 3 {m}
  -3, 3, 4;                               !- X,Y,Z Vertex 4 {m}

OS:Surface,
  {89a57a8e-f5b5-4e86-a692-0761596dc7e5}, !- Handle
  Surface 9,                              !- Name
  Wall,                                   !- Surface Type
  ,                                       !- Construction Name
  {fb7a43c1-a82f-41a7-8f4c-827a802566dd}, !- Space Name
  Surface,                                !- Outside Boundary Condition
  {99249153-82a4-42a7-96ba-aeeed7d18231}, !- Outside Boundary Condition Object
  NoSun,                                  !- Sun Exposure
  NoWind,                                 !- Wind Exposure
  ,                                       !- View Factor to Ground
  ,                                       !- Number of Vertices
  11.6351920885484, 3.5527136788005e-15, 4, !- X,Y,Z Vertex 1 {m}
  11.6351920885484, 3.5527136788005e-15, 0, !- X,Y,Z Vertex 2 {m}
  14.6351920885484, 3, 0,                 !- X,Y,Z Vertex 3 {m}
  14.6351920885484, 3, 4;                 !- X,Y,Z Vertex 4 {m}

OS:Surface,
  {49956e2e-1956-4897-a2db-d1b5a590c584}, !- Handle
  Surface 10,                             !- Name
  Wall,                                   !- Surface Type
  ,                                       !- Construction Name
  {fb7a43c1-a82f-41a7-8f4c-827a802566dd}, !- Space Name
  Surface,                                !- Outside Boundary Condition
  {8f619b57-89c8-4ed6-b5a0-b3c13bd72edb}, !- Outside Boundary Condition Object
  NoSun,                                  !- Sun Exposure
  NoWind,                                 !- Wind Exposure
  ,                                       !- View Factor to Ground
  ,                                       !- Number of Vertices
  0, 3.5527136788005e-15, 4,              !- X,Y,Z Vertex 1 {m}
  0, 3.5527136788005e-15, 0,              !- X,Y,Z Vertex 2 {m}
  11.6351920885484, 3.5527136788005e-15, 0, !- X,Y,Z Vertex 3 {m}
  11.6351920885484, 3.5527136788005e-15, 4; !- X,Y,Z Vertex 4 {m}

OS:Surface,
  {8b9c53d2-903d-4038-9ea9-5ac1608138c2}, !- Handle
  Surface 11,                             !- Name
  Wall,                                   !- Surface Type
  ,                                       !- Construction Name
  {fb7a43c1-a82f-41a7-8f4c-827a802566dd}, !- Space Name
  Surface,                                !- Outside Boundary Condition
  {1248fb46-4198-4179-bd49-88bdc23db987}, !- Outside Boundary Condition Object
  NoSun,                                  !- Sun Exposure
  NoWind,                                 !- Wind Exposure
  ,                                       !- View Factor to Ground
  ,                                       !- Number of Vertices
  -3, 3, 4,                               !- X,Y,Z Vertex 1 {m}
  -3, 3, 0,                               !- X,Y,Z Vertex 2 {m}
  0, 3.5527136788005e-15, 0,              !- X,Y,Z Vertex 3 {m}
  0, 3.5527136788005e-15, 4;              !- X,Y,Z Vertex 4 {m}

OS:Surface,
  {7e6f7bf4-be55-46e4-a1c5-43d48f029722}, !- Handle
  Surface 12,                             !- Name
  RoofCeiling,                            !- Surface Type
  ,                                       !- Construction Name
  {fb7a43c1-a82f-41a7-8f4c-827a802566dd}, !- Space Name
  Outdoors,                               !- Outside Boundary Condition
  ,                                       !- Outside Boundary Condition Object
  SunExposed,                             !- Sun Exposure
  WindExposed,                            !- Wind Exposure
  ,                                       !- View Factor to Ground
  ,                                       !- Number of Vertices
  0, 3.5527136788005e-15, 4,              !- X,Y,Z Vertex 1 {m}
  11.6351920885484, 3.5527136788005e-15, 4, !- X,Y,Z Vertex 2 {m}
  14.6351920885484, 3, 4,                 !- X,Y,Z Vertex 3 {m}
  -3, 3, 4;                               !- X,Y,Z Vertex 4 {m}

OS:Space,
  {72ff4af2-6ed9-4854-a83f-d9cc0c2ff959}, !- Handle
  Story 1 East Perimeter Space,           !- Name
  ,                                       !- Space Type Name
  ,                                       !- Default Construction Set Name
  ,                                       !- Default Schedule Set Name
  -0,                                     !- Direction of Relative North {deg}
  14.6351920885484,                       !- X Origin {m}
  3,                                      !- Y Origin {m}
  0,                                      !- Z Origin {m}
  {9635be9b-2c28-4502-acf9-781c2c2bb84e}, !- Building Story Name
  {e72ad6d1-5d66-477a-9122-8547e4365d3e}; !- Thermal Zone Name

OS:Surface,
  {3fc821ef-0cfe-43e6-b9e2-b3e74431e30c}, !- Handle
  Surface 13,                             !- Name
  Floor,                                  !- Surface Type
  ,                                       !- Construction Name
  {72ff4af2-6ed9-4854-a83f-d9cc0c2ff959}, !- Space Name
  Ground,                                 !- Outside Boundary Condition
  ,                                       !- Outside Boundary Condition Object
  NoSun,                                  !- Sun Exposure
  NoWind,                                 !- Wind Exposure
  ,                                       !- View Factor to Ground
  ,                                       !- Number of Vertices
  3, 14.6351920885484, 0,                 !- X,Y,Z Vertex 1 {m}
  3, -3, 0,                               !- X,Y,Z Vertex 2 {m}
  3.5527136788005e-15, 0, 0,              !- X,Y,Z Vertex 3 {m}
  3.5527136788005e-15, 11.6351920885484, 0; !- X,Y,Z Vertex 4 {m}

OS:Surface,
  {87ead472-c1a6-4c47-beec-1a8ccdfec687}, !- Handle
  Surface 14,                             !- Name
  Wall,                                   !- Surface Type
  ,                                       !- Construction Name
  {72ff4af2-6ed9-4854-a83f-d9cc0c2ff959}, !- Space Name
  Outdoors,                               !- Outside Boundary Condition
  ,                                       !- Outside Boundary Condition Object
  SunExposed,                             !- Sun Exposure
  WindExposed,                            !- Wind Exposure
  ,                                       !- View Factor to Ground
  ,                                       !- Number of Vertices
  3, -3, 4,                               !- X,Y,Z Vertex 1 {m}
  3, -3, 0,                               !- X,Y,Z Vertex 2 {m}
  3, 14.6351920885484, 0,                 !- X,Y,Z Vertex 3 {m}
  3, 14.6351920885484, 4;                 !- X,Y,Z Vertex 4 {m}

OS:Surface,
  {7d0aac22-9201-4f94-99c9-b6de1b60e2f2}, !- Handle
  Surface 15,                             !- Name
  Wall,                                   !- Surface Type
  ,                                       !- Construction Name
  {72ff4af2-6ed9-4854-a83f-d9cc0c2ff959}, !- Space Name
  Surface,                                !- Outside Boundary Condition
  {b8f3e39b-8a2a-48af-88f1-7a440de49633}, !- Outside Boundary Condition Object
  NoSun,                                  !- Sun Exposure
  NoWind,                                 !- Wind Exposure
  ,                                       !- View Factor to Ground
  ,                                       !- Number of Vertices
  3.5527136788005e-15, 0, 4,              !- X,Y,Z Vertex 1 {m}
  3.5527136788005e-15, 0, 0,              !- X,Y,Z Vertex 2 {m}
  3, -3, 0,                               !- X,Y,Z Vertex 3 {m}
  3, -3, 4;                               !- X,Y,Z Vertex 4 {m}

OS:Surface,
  {b2b6e85e-416c-42d1-aebb-a731c21e0161}, !- Handle
  Surface 16,                             !- Name
  Wall,                                   !- Surface Type
  ,                                       !- Construction Name
  {72ff4af2-6ed9-4854-a83f-d9cc0c2ff959}, !- Space Name
  Surface,                                !- Outside Boundary Condition
  {fb93543e-69ea-4a71-845f-65f19d182f18}, !- Outside Boundary Condition Object
  NoSun,                                  !- Sun Exposure
  NoWind,                                 !- Wind Exposure
  ,                                       !- View Factor to Ground
  ,                                       !- Number of Vertices
  3.5527136788005e-15, 11.6351920885484, 4, !- X,Y,Z Vertex 1 {m}
  3.5527136788005e-15, 11.6351920885484, 0, !- X,Y,Z Vertex 2 {m}
  3.5527136788005e-15, 0, 0,              !- X,Y,Z Vertex 3 {m}
  3.5527136788005e-15, 0, 4;              !- X,Y,Z Vertex 4 {m}

OS:Surface,
  {99249153-82a4-42a7-96ba-aeeed7d18231}, !- Handle
  Surface 17,                             !- Name
  Wall,                                   !- Surface Type
  ,                                       !- Construction Name
  {72ff4af2-6ed9-4854-a83f-d9cc0c2ff959}, !- Space Name
  Surface,                                !- Outside Boundary Condition
  {89a57a8e-f5b5-4e86-a692-0761596dc7e5}, !- Outside Boundary Condition Object
  NoSun,                                  !- Sun Exposure
  NoWind,                                 !- Wind Exposure
  ,                                       !- View Factor to Ground
  ,                                       !- Number of Vertices
  3, 14.6351920885484, 4,                 !- X,Y,Z Vertex 1 {m}
  3, 14.6351920885484, 0,                 !- X,Y,Z Vertex 2 {m}
  3.5527136788005e-15, 11.6351920885484, 0, !- X,Y,Z Vertex 3 {m}
  3.5527136788005e-15, 11.6351920885484, 4; !- X,Y,Z Vertex 4 {m}

OS:Surface,
  {255ddb91-d553-4f04-a6ff-3af03d360ef9}, !- Handle
  Surface 18,                             !- Name
  RoofCeiling,                            !- Surface Type
  ,                                       !- Construction Name
  {72ff4af2-6ed9-4854-a83f-d9cc0c2ff959}, !- Space Name
  Outdoors,                               !- Outside Boundary Condition
  ,                                       !- Outside Boundary Condition Object
  SunExposed,                             !- Sun Exposure
  WindExposed,                            !- Wind Exposure
  ,                                       !- View Factor to Ground
  ,                                       !- Number of Vertices
  3.5527136788005e-15, 11.6351920885484, 4, !- X,Y,Z Vertex 1 {m}
  3.5527136788005e-15, 0, 4,              !- X,Y,Z Vertex 2 {m}
  3, -3, 4,                               !- X,Y,Z Vertex 3 {m}
  3, 14.6351920885484, 4;                 !- X,Y,Z Vertex 4 {m}

OS:Space,
  {c7011f53-5013-4e1d-b9e8-7d41f2c371fa}, !- Handle
  Story 1 South Perimeter Space,          !- Name
  ,                                       !- Space Type Name
  ,                                       !- Default Construction Set Name
  ,                                       !- Default Schedule Set Name
  -0,                                     !- Direction of Relative North {deg}
  0,                                      !- X Origin {m}
  0,                                      !- Y Origin {m}
  0,                                      !- Z Origin {m}
  {9635be9b-2c28-4502-acf9-781c2c2bb84e}, !- Building Story Name
  {6397281d-ea14-4619-bd5e-cb68299d4b4b}; !- Thermal Zone Name

OS:Surface,
  {a7ba4477-e639-4cf6-9019-c1e985c85d13}, !- Handle
  Surface 19,                             !- Name
  Floor,                                  !- Surface Type
  ,                                       !- Construction Name
  {c7011f53-5013-4e1d-b9e8-7d41f2c371fa}, !- Space Name
  Ground,                                 !- Outside Boundary Condition
  ,                                       !- Outside Boundary Condition Object
  NoSun,                                  !- Sun Exposure
  NoWind,                                 !- Wind Exposure
  ,                                       !- View Factor to Ground
  ,                                       !- Number of Vertices
  17.6351920885484, 0, 0,                 !- X,Y,Z Vertex 1 {m}
  0, 0, 0,                                !- X,Y,Z Vertex 2 {m}
  3, 3, 0,                                !- X,Y,Z Vertex 3 {m}
  14.6351920885484, 3, 0;                 !- X,Y,Z Vertex 4 {m}

OS:Surface,
  {08b18d2b-2c20-4912-a47d-1784ac0e916a}, !- Handle
  Surface 20,                             !- Name
  Wall,                                   !- Surface Type
  ,                                       !- Construction Name
  {c7011f53-5013-4e1d-b9e8-7d41f2c371fa}, !- Space Name
  Outdoors,                               !- Outside Boundary Condition
  ,                                       !- Outside Boundary Condition Object
  SunExposed,                             !- Sun Exposure
  WindExposed,                            !- Wind Exposure
  ,                                       !- View Factor to Ground
  ,                                       !- Number of Vertices
  0, 0, 4,                                !- X,Y,Z Vertex 1 {m}
  0, 0, 0,                                !- X,Y,Z Vertex 2 {m}
  17.6351920885484, 0, 0,                 !- X,Y,Z Vertex 3 {m}
  17.6351920885484, 0, 4;                 !- X,Y,Z Vertex 4 {m}

OS:Surface,
  {e323cdfd-524d-48c7-84de-c3aaf38b6e79}, !- Handle
  Surface 21,                             !- Name
  Wall,                                   !- Surface Type
  ,                                       !- Construction Name
  {c7011f53-5013-4e1d-b9e8-7d41f2c371fa}, !- Space Name
  Surface,                                !- Outside Boundary Condition
  {f65e0d37-483a-48c6-bc0e-f1f9e6350c70}, !- Outside Boundary Condition Object
  NoSun,                                  !- Sun Exposure
  NoWind,                                 !- Wind Exposure
  ,                                       !- View Factor to Ground
  ,                                       !- Number of Vertices
  3, 3, 4,                                !- X,Y,Z Vertex 1 {m}
  3, 3, 0,                                !- X,Y,Z Vertex 2 {m}
  0, 0, 0,                                !- X,Y,Z Vertex 3 {m}
  0, 0, 4;                                !- X,Y,Z Vertex 4 {m}

OS:Surface,
  {952db0b9-e168-4afe-bca7-49bbb317424c}, !- Handle
  Surface 22,                             !- Name
  Wall,                                   !- Surface Type
  ,                                       !- Construction Name
  {c7011f53-5013-4e1d-b9e8-7d41f2c371fa}, !- Space Name
  Surface,                                !- Outside Boundary Condition
  {4bd2e203-9650-4c50-9ac7-585b316b2f12}, !- Outside Boundary Condition Object
  NoSun,                                  !- Sun Exposure
  NoWind,                                 !- Wind Exposure
  ,                                       !- View Factor to Ground
  ,                                       !- Number of Vertices
  14.6351920885484, 3, 4,                 !- X,Y,Z Vertex 1 {m}
  14.6351920885484, 3, 0,                 !- X,Y,Z Vertex 2 {m}
  3, 3, 0,                                !- X,Y,Z Vertex 3 {m}
  3, 3, 4;                                !- X,Y,Z Vertex 4 {m}

OS:Surface,
  {b8f3e39b-8a2a-48af-88f1-7a440de49633}, !- Handle
  Surface 23,                             !- Name
  Wall,                                   !- Surface Type
  ,                                       !- Construction Name
  {c7011f53-5013-4e1d-b9e8-7d41f2c371fa}, !- Space Name
  Surface,                                !- Outside Boundary Condition
  {7d0aac22-9201-4f94-99c9-b6de1b60e2f2}, !- Outside Boundary Condition Object
  NoSun,                                  !- Sun Exposure
  NoWind,                                 !- Wind Exposure
  ,                                       !- View Factor to Ground
  ,                                       !- Number of Vertices
  17.6351920885484, 0, 4,                 !- X,Y,Z Vertex 1 {m}
  17.6351920885484, 0, 0,                 !- X,Y,Z Vertex 2 {m}
  14.6351920885484, 3, 0,                 !- X,Y,Z Vertex 3 {m}
  14.6351920885484, 3, 4;                 !- X,Y,Z Vertex 4 {m}

OS:Surface,
  {a8a253bd-0f4d-4c22-882e-2b8dd6cf1da6}, !- Handle
  Surface 24,                             !- Name
  RoofCeiling,                            !- Surface Type
  ,                                       !- Construction Name
  {c7011f53-5013-4e1d-b9e8-7d41f2c371fa}, !- Space Name
  Outdoors,                               !- Outside Boundary Condition
  ,                                       !- Outside Boundary Condition Object
  SunExposed,                             !- Sun Exposure
  WindExposed,                            !- Wind Exposure
  ,                                       !- View Factor to Ground
  ,                                       !- Number of Vertices
  14.6351920885484, 3, 4,                 !- X,Y,Z Vertex 1 {m}
  3, 3, 4,                                !- X,Y,Z Vertex 2 {m}
  0, 0, 4,                                !- X,Y,Z Vertex 3 {m}
  17.6351920885484, 0, 4;                 !- X,Y,Z Vertex 4 {m}

OS:Space,
  {669cb83d-d4ae-4c0a-b911-069b9876227c}, !- Handle
  Story 1 Core Space,                     !- Name
  ,                                       !- Space Type Name
  ,                                       !- Default Construction Set Name
  ,                                       !- Default Schedule Set Name
  -0,                                     !- Direction of Relative North {deg}
  3,                                      !- X Origin {m}
  3,                                      !- Y Origin {m}
  0,                                      !- Z Origin {m}
  {9635be9b-2c28-4502-acf9-781c2c2bb84e}, !- Building Story Name
  {8756d0ba-0835-42ae-b6b9-341f9d9527f8}; !- Thermal Zone Name

OS:Surface,
  {cfee352a-1c97-4757-99a1-e7ad0736f01b}, !- Handle
  Surface 25,                             !- Name
  Floor,                                  !- Surface Type
  ,                                       !- Construction Name
  {669cb83d-d4ae-4c0a-b911-069b9876227c}, !- Space Name
  Ground,                                 !- Outside Boundary Condition
  ,                                       !- Outside Boundary Condition Object
  NoSun,                                  !- Sun Exposure
  NoWind,                                 !- Wind Exposure
  ,                                       !- View Factor to Ground
  ,                                       !- Number of Vertices
  0, 0, 0,                                !- X,Y,Z Vertex 1 {m}
  0, 11.6351920885484, 0,                 !- X,Y,Z Vertex 2 {m}
  11.6351920885484, 11.6351920885484, 0,  !- X,Y,Z Vertex 3 {m}
  11.6351920885484, 0, 0;                 !- X,Y,Z Vertex 4 {m}

OS:Surface,
  {2fe16f10-9ddd-46f8-8ef2-264a186ae3a5}, !- Handle
  Surface 26,                             !- Name
  Wall,                                   !- Surface Type
  ,                                       !- Construction Name
  {669cb83d-d4ae-4c0a-b911-069b9876227c}, !- Space Name
  Surface,                                !- Outside Boundary Condition
  {b26eeb6b-90e0-4ae7-9841-cf46b0622537}, !- Outside Boundary Condition Object
  NoSun,                                  !- Sun Exposure
  NoWind,                                 !- Wind Exposure
  ,                                       !- View Factor to Ground
  ,                                       !- Number of Vertices
  0, 11.6351920885484, 4,                 !- X,Y,Z Vertex 1 {m}
  0, 11.6351920885484, 0,                 !- X,Y,Z Vertex 2 {m}
  0, 0, 0,                                !- X,Y,Z Vertex 3 {m}
  0, 0, 4;                                !- X,Y,Z Vertex 4 {m}

OS:Surface,
  {8f619b57-89c8-4ed6-b5a0-b3c13bd72edb}, !- Handle
  Surface 27,                             !- Name
  Wall,                                   !- Surface Type
  ,                                       !- Construction Name
  {669cb83d-d4ae-4c0a-b911-069b9876227c}, !- Space Name
  Surface,                                !- Outside Boundary Condition
  {49956e2e-1956-4897-a2db-d1b5a590c584}, !- Outside Boundary Condition Object
  NoSun,                                  !- Sun Exposure
  NoWind,                                 !- Wind Exposure
  ,                                       !- View Factor to Ground
  ,                                       !- Number of Vertices
  11.6351920885484, 11.6351920885484, 4,  !- X,Y,Z Vertex 1 {m}
  11.6351920885484, 11.6351920885484, 0,  !- X,Y,Z Vertex 2 {m}
  0, 11.6351920885484, 0,                 !- X,Y,Z Vertex 3 {m}
  0, 11.6351920885484, 4;                 !- X,Y,Z Vertex 4 {m}

OS:Surface,
  {fb93543e-69ea-4a71-845f-65f19d182f18}, !- Handle
  Surface 28,                             !- Name
  Wall,                                   !- Surface Type
  ,                                       !- Construction Name