
OS:Version,
  {1abc68a7-e0bc-4ecc-a379-57c77b5b824e}, !- Handle
  0.10.0;                                 !- Version Identifier

OS:BuildingStory,
  {79c62aa8-8db5-413a-83c1-fd3df9166694}, !- Handle
  Story 1,                                !- Name
  0,                                      !- Nominal Z Coordinate {m}
  4,                                      !- Nominal Floor to Floor Height {m}
  ,                                       !- Default Construction Set Name
  ,                                       !- Default Schedule Set Name
  ;                                       !- Group Rendering Name

OS:Space,
  {ff3e0ccb-cb91-4841-8229-2caa03f9f76b}, !- Handle
  Story 1 West Perimeter Space,           !- Name
  ,                                       !- Space Type Name
  ,                                       !- Default Construction Set Name
  ,                                       !- Default Schedule Set Name
  -0,                                     !- Direction of Relative North {deg}
  0,                                      !- X Origin {m}
  0,                                      !- Y Origin {m}
  0,                                      !- Z Origin {m}
  {79c62aa8-8db5-413a-83c1-fd3df9166694}, !- Building Story Name
  {122c17aa-6397-40ef-8ba6-1e61090300c4}; !- Thermal Zone Name

OS:Surface,
  {921c9804-b312-4904-ad81-d4ff6e0fc58e}, !- Handle
  Surface 1,                              !- Name
  Floor,                                  !- Surface Type
  ,                                       !- Construction Name
  {ff3e0ccb-cb91-4841-8229-2caa03f9f76b}, !- Space Name
  Ground,                                 !- Outside Boundary Condition
  ,                                       !- Outside Boundary Condition Object
  NoSun,                                  !- Sun Exposure
  NoWind,                                 !- Wind Exposure
  ,                                       !- View Factor to Ground
  ,                                       !- Number of Vertices
  0, 0, 0,                                !- X,Y,Z Vertex 1 {m}
  0, 7.07106781186548, 0,                 !- X,Y,Z Vertex 2 {m}
  3, 4.07106781186548, 0,                 !- X,Y,Z Vertex 3 {m}
  3, 3, 0;                                !- X,Y,Z Vertex 4 {m}

OS:Surface,
  {9561e92e-4c0f-4329-a949-2bd0c9e9513f}, !- Handle
  Surface 2,                              !- Name
  Wall,                                   !- Surface Type
  ,                                       !- Construction Name
  {ff3e0ccb-cb91-4841-8229-2caa03f9f76b}, !- Space Name
  Outdoors,                               !- Outside Boundary Condition
  ,                                       !- Outside Boundary Condition Object
  SunExposed,                             !- Sun Exposure
  WindExposed,                            !- Wind Exposure
  ,                                       !- View Factor to Ground
  ,                                       !- Number of Vertices
  0, 7.07106781186548, 4,                 !- X,Y,Z Vertex 1 {m}
  0, 7.07106781186548, 0,                 !- X,Y,Z Vertex 2 {m}
  0, 0, 0,                                !- X,Y,Z Vertex 3 {m}
  0, 0, 4;                                !- X,Y,Z Vertex 4 {m}

OS:Surface,
  {b21b36cc-d98c-4472-9209-a978e5ddb7e5}, !- Handle
  Surface 3,                              !- Name
  Wall,                                   !- Surface Type
  ,                                       !- Construction Name
  {ff3e0ccb-cb91-4841-8229-2caa03f9f76b}, !- Space Name
  Surface,                                !- Outside Boundary Condition
  {5a448da4-baeb-49ed-a8de-4219835dc66d}, !- Outside Boundary Condition Object
  NoSun,                                  !- Sun Exposure
  NoWind,                                 !- Wind Exposure
  ,                                       !- View Factor to Ground
  ,                                       !- Number of Vertices
  3, 4.07106781186548, 4,                 !- X,Y,Z Vertex 1 {m}
  3, 4.07106781186548, 0,                 !- X,Y,Z Vertex 2 {m}
  0, 7.07106781186548, 0,                 !- X,Y,Z Vertex 3 {m}
  0, 7.07106781186548, 4;                 !- X,Y,Z Vertex 4 {m}

OS:Surface,
  {31d9e663-5743-473a-949b-51d2042942ed}, !- Handle
  Surface 4,                              !- Name
  Wall,                                   !- Surface Type
  ,                                       !- Construction Name
  {ff3e0ccb-cb91-4841-8229-2caa03f9f76b}, !- Space Name
  Surface,                                !- Outside Boundary Condition
  {1722ff44-911f-4129-9149-6de15a9bc5e9}, !- Outside Boundary Condition Object
  NoSun,                                  !- Sun Exposure
  NoWind,                                 !- Wind Exposure
  ,                                       !- View Factor to Ground
  ,                                       !- Number of Vertices
  3, 3, 4,                                !- X,Y,Z Vertex 1 {m}
  3, 3, 0,                                !- X,Y,Z Vertex 2 {m}
  3, 4.07106781186548, 0,                 !- X,Y,Z Vertex 3 {m}
  3, 4.07106781186548, 4;                 !- X,Y,Z Vertex 4 {m}

OS:Surface,
  {11161024-5091-433f-911a-204e621d6afc}, !- Handle
  Surface 5,                              !- Name
  Wall,                                   !- Surface Type
  ,                                       !- Construction Name
  {ff3e0ccb-cb91-4841-8229-2caa03f9f76b}, !- Space Name
  Surface,                                !- Outside Boundary Condition
  {c931bf40-c8dd-4156-8731-4458893f81d7}, !- Outside Boundary Condition Object
  NoSun,                                  !- Sun Exposure
  NoWind,                                 !- Wind Exposure
  ,                                       !- View Factor to Ground
  ,                                       !- Number of Vertices
  0, 0, 4,                                !- X,Y,Z Vertex 1 {m}
  0, 0, 0,                                !- X,Y,Z Vertex 2 {m}
  3, 3, 0,                                !- X,Y,Z Vertex 3 {m}
  3, 3, 4;                                !- X,Y,Z Vertex 4 {m}

OS:Surface,
  {33da221f-d790-4099-b601-366cf59da67f}, !- Handle
  Surface 6,                              !- Name
  RoofCeiling,                            !- Surface Type
  ,                                       !- Construction Name
  {ff3e0ccb-cb91-4841-8229-2caa03f9f76b}, !- Space Name
  Surface,                                !- Outside Boundary Condition
  {75368b85-86d6-49e7-b5f9-c618f8b4fc7d}, !- Outside Boundary Condition Object
  NoSun,                                  !- Sun Exposure
  NoWind,                                 !- Wind Exposure
  ,                                       !- View Factor to Ground
  ,                                       !- Number of Vertices
  3, 3, 4,                                !- X,Y,Z Vertex 1 {m}
  3, 4.07106781186548, 4,                 !- X,Y,Z Vertex 2 {m}
  0, 7.07106781186548, 4,                 !- X,Y,Z Vertex 3 {m}
  0, 0, 4;                                !- X,Y,Z Vertex 4 {m}

OS:Space,
  {3966914b-e618-45c4-80bd-6602e90bb326}, !- Handle
  Story 1 North Perimeter Space,          !- Name
  ,                                       !- Space Type Name
  ,                                       !- Default Construction Set Name
  ,                                       !- Default Schedule Set Name
  -0,                                     !- Direction of Relative North {deg}
  3,                                      !- X Origin {m}
  4.07106781186548,                       !- Y Origin {m}
  0,                                      !- Z Origin {m}
  {79c62aa8-8db5-413a-83c1-fd3df9166694}, !- Building Story Name
  {e4399605-08a8-4cb5-bdca-4f422ea78a67}; !- Thermal Zone Name

OS:Surface,
  {7f329a32-9458-44f7-9eea-1acc166867d8}, !- Handle
  Surface 7,                              !- Name
  Floor,                                  !- Surface Type
  ,                                       !- Construction Name
  {3966914b-e618-45c4-80bd-6602e90bb326}, !- Space Name
  Ground,                                 !- Outside Boundary Condition
  ,                                       !- Outside Boundary Condition Object
  NoSun,                                  !- Sun Exposure
  NoWind,                                 !- Wind Exposure
  ,                                       !- View Factor to Ground
  ,                                       !- Number of Vertices
  -3, 3, 0,                               !- X,Y,Z Vertex 1 {m}
  4.07106781186548, 3, 0,                 !- X,Y,Z Vertex 2 {m}
  1.07106781186548, 4.44089209850063e-15, 0, !- X,Y,Z Vertex 3 {m}
  0, 4.44089209850063e-15, 0;             !- X,Y,Z Vertex 4 {m}

OS:Surface,
  {48278dfd-d842-4a7f-a7fd-6b26b88495ee}, !- Handle
  Surface 8,                              !- Name
  Wall,                                   !- Surface Type
  ,                                       !- Construction Name
  {3966914b-e618-45c4-80bd-6602e90bb326}, !- Space Name
  Outdoors,                               !- Outside Boundary Condition
  ,                                       !- Outside Boundary Condition Object
  SunExposed,                             !- Sun Exposure
  WindExposed,                            !- Wind Exposure
  ,                                       !- View Factor to Ground
  ,                                       !- Number of Vertices
  4.07106781186548, 3, 4,                 !- X,Y,Z Vertex 1 {m}
  4.07106781186548, 3, 0,                 !- X,Y,Z Vertex 2 {m}
  -3, 3, 0,                               !- X,Y,Z Vertex 3 {m}
  -3, 3, 4;                               !- X,Y,Z Vertex 4 {m}

OS:Surface,
  {99e2df03-b598-4179-b4e6-04a0db4445af}, !- Handle
  Surface 9,                              !- Name
  Wall,                                   !- Surface Type
  ,                                       !- Construction Name
  {3966914b-e618-45c4-80bd-6602e90bb326}, !- Space Name
  Surface,                                !- Outside Boundary Condition
  {9736510f-e85d-4553-9f2e-11d5e54aa26c}, !- Outside Boundary Condition Object
  NoSun,                                  !- Sun Exposure
  NoWind,                                 !- Wind Exposure
  ,                                       !- View Factor to Ground
  ,                                       !- Number of Vertices
  1.07106781186548, 4.44089209850063e-15, 4, !- X,Y,Z Vertex 1 {m}
  1.07106781186548, 4.44089209850063e-15, 0, !- X,Y,Z Vertex 2 {m}
  4.07106781186548, 3, 0,                 !- X,Y,Z Vertex 3 {m}
  4.07106781186548, 3, 4;                 !- X,Y,Z Vertex 4 {m}

OS:Surface,
  {90c2e1f1-db15-4930-b676-f059af9a66b7}, !- Handle
  Surface 10,                             !- Name
  Wall,                                   !- Surface Type
  ,                                       !- Construction Name
  {3966914b-e618-45c4-80bd-6602e90bb326}, !- Space Name
  Surface,                                !- Outside Boundary Condition
  {b452aff1-da61-4b53-a37b-e6d232793446}, !- Outside Boundary Condition Object
  NoSun,                                  !- Sun Exposure
  NoWind,                                 !- Wind Exposure
  ,                                       !- View Factor to Ground
  ,                                       !- Number of Vertices
  0, 4.44089209850063e-15, 4,             !- X,Y,Z Vertex 1 {m}
  0, 4.44089209850063e-15, 0,             !- X,Y,Z Vertex 2 {m}
  1.07106781186548, 4.44089209850063e-15, 0, !- X,Y,Z Vertex 3 {m}
  1.07106781186548, 4.44089209850063e-15, 4; !- X,Y,Z Vertex 4 {m}

OS:Surface,
  {5a448da4-baeb-49ed-a8de-4219835dc66d}, !- Handle
  Surface 11,                             !- Name
  Wall,                                   !- Surface Type
  ,                                       !- Construction Name
  {3966914b-e618-45c4-80bd-6602e90bb326}, !- Space Name
  Surface,                                !- Outside Boundary Condition
  {b21b36cc-d98c-4472-9209-a978e5ddb7e5}, !- Outside Boundary Condition Object
  NoSun,                                  !- Sun Exposure
  NoWind,                                 !- Wind Exposure
  ,                                       !- View Factor to Ground
  ,                                       !- Number of Vertices
  -3, 3, 4,                               !- X,Y,Z Vertex 1 {m}
  -3, 3, 0,                               !- X,Y,Z Vertex 2 {m}
  0, 4.44089209850063e-15, 0,             !- X,Y,Z Vertex 3 {m}
  0, 4.44089209850063e-15, 4;             !- X,Y,Z Vertex 4 {m}

OS:Surface,
  {09a7e523-a939-461e-8dab-566a5eef1dcf}, !- Handle
  Surface 12,                             !- Name
  RoofCeiling,                            !- Surface Type
  ,                                       !- Construction Name
  {3966914b-e618-45c4-80bd-6602e90bb326}, !- Space Name
  Surface,                                !- Outside Boundary Condition
  {b213eeb4-62eb-4b7a-a959-06856f2f7e21}, !- Outside Boundary Condition Object
  NoSun,                                  !- Sun Exposure
  NoWind,                                 !- Wind Exposure
  ,                                       !- View Factor to Ground
  ,                                       !- Number of Vertices
  0, 4.44089209850063e-15, 4,             !- X,Y,Z Vertex 1 {m}
  1.07106781186548, 4.44089209850063e-15, 4, !- X,Y,Z Vertex 2 {m}
  4.07106781186548, 3, 4,                 !- X,Y,Z Vertex 3 {m}
  -3, 3, 4;                               !- X,Y,Z Vertex 4 {m}

OS:Space,
  {4be06e6c-b70c-4056-883e-44044bbe0ed7}, !- Handle
  Story 1 East Perimeter Space,           !- Name
  ,                                       !- Space Type Name
  ,                                       !- Default Construction Set Name
  ,                                       !- Default Schedule Set Name
  -0,                                     !- Direction of Relative North {deg}
  4.07106781186548,                       !- X Origin {m}
  3,                                      !- Y Origin {m}
  0,                                      !- Z Origin {m}
  {79c62aa8-8db5-413a-83c1-fd3df9166694}, !- Building Story Name
  {746ec6b3-33f9-4532-971d-3201d2f9fa6f}; !- Thermal Zone Name

OS:Surface,
  {ea41458a-ebff-41d1-8adf-a0e7a3a5e7cf}, !- Handle
  Surface 13,                             !- Name
  Floor,                                  !- Surface Type
  ,                                       !- Construction Name
  {4be06e6c-b70c-4056-883e-44044bbe0ed7}, !- Space Name
  Ground,                                 !- Outside Boundary Condition
  ,                                       !- Outside Boundary Condition Object
  NoSun,                                  !- Sun Exposure
  NoWind,                                 !- Wind Exposure
  ,                                       !- View Factor to Ground
  ,                                       !- Number of Vertices
  3, 4.07106781186548, 0,                 !- X,Y,Z Vertex 1 {m}
  3, -3, 0,                               !- X,Y,Z Vertex 2 {m}
  4.44089209850063e-15, 0, 0,             !- X,Y,Z Vertex 3 {m}
  4.44089209850063e-15, 1.07106781186548, 0; !- X,Y,Z Vertex 4 {m}

OS:Surface,
  {8b8c550f-b08f-4e05-b76d-87f6b069cc76}, !- Handle
  Surface 14,                             !- Name
  Wall,                                   !- Surface Type
  ,                                       !- Construction Name
  {4be06e6c-b70c-4056-883e-44044bbe0ed7}, !- Space Name
  Outdoors,                               !- Outside Boundary Condition
  ,                                       !- Outside Boundary Condition Object
  SunExposed,                             !- Sun Exposure
  WindExposed,                            !- Wind Exposure
  ,                                       !- View Factor to Ground
  ,                                       !- Number of Vertices
  3, -3, 4,                               !- X,Y,Z Vertex 1 {m}
  3, -3, 0,                               !- X,Y,Z Vertex 2 {m}
  3, 4.07106781186548, 0,                 !- X,Y,Z Vertex 3 {m}
  3, 4.07106781186548, 4;                 !- X,Y,Z Vertex 4 {m}

OS:Surface,
  {a052a83e-1d88-4110-b626-82107eb078dd}, !- Handle
  Surface 15,                             !- Name
  Wall,                                   !- Surface Type
  ,                                       !- Construction Name
  {4be06e6c-b70c-4056-883e-44044bbe0ed7}, !- Space Name
  Surface,                                !- Outside Boundary Condition
  {e8d56972-bbf3-4b24-8d78-08b9c08cc79c}, !- Outside Boundary Condition Object
  NoSun,                                  !- Sun Exposure
  NoWind,                                 !- Wind Exposure
  ,                                       !- View Factor to Ground
  ,                                       !- Number of Vertices
  4.44089209850063e-15, 0, 4,             !- X,Y,Z Vertex 1 {m}
  4.44089209850063e-15, 0, 0,             !- X,Y,Z Vertex 2 {m}
  3, -3, 0,                               !- X,Y,Z Vertex 3 {m}
  3, -3, 4;                               !- X,Y,Z Vertex 4 {m}

OS:Surface,
  {4934485d-1cd6-40d0-8ef8-471fc9ab82df}, !- Handle
  Surface 16,                             !- Name
  Wall,                                   !- Surface Type
  ,                                       !- Construction Name
  {4be06e6c-b70c-4056-883e-44044bbe0ed7}, !- Space Name
  Surface,                                !- Outside Boundary Condition
  {d14d79d5-a08b-48e6-adda-4db869dd62a4}, !- Outside Boundary Condition Object
  NoSun,                                  !- Sun Exposure
  NoWind,                                 !- Wind Exposure
  ,                                       !- View Factor to Ground
  ,                                       !- Number of Vertices
  4.44089209850063e-15, 1.07106781186548, 4, !- X,Y,Z Vertex 1 {m}
  4.44089209850063e-15, 1.07106781186548, 0, !- X,Y,Z Vertex 2 {m}
  4.44089209850063e-15, 0, 0,             !- X,Y,Z Vertex 3 {m}
  4.44089209850063e-15, 0, 4;             !- X,Y,Z Vertex 4 {m}

OS:Surface,
  {9736510f-e85d-4553-9f2e-11d5e54aa26c}, !- Handle
  Surface 17,                             !- Name
  Wall,                                   !- Surface Type
  ,                                       !- Construction Name
  {4be06e6c-b70c-4056-883e-44044bbe0ed7}, !- Space Name
  Surface,                                !- Outside Boundary Condition
  {99e2df03-b598-4179-b4e6-04a0db4445af}, !- Outside Boundary Condition Object
  NoSun,                                  !- Sun Exposure
  NoWind,                                 !- Wind Exposure
  ,                                       !- View Factor to Ground
  ,                                       !- Number of Vertices
  3, 4.07106781186548, 4,                 !- X,Y,Z Vertex 1 {m}
  3, 4.07106781186548, 0,                 !- X,Y,Z Vertex 2 {m}
  4.44089209850063e-15, 1.07106781186548, 0, !- X,Y,Z Vertex 3 {m}
  4.44089209850063e-15, 1.07106781186548, 4; !- X,Y,Z Vertex 4 {m}

OS:Surface,
  {1d746d53-1642-4571-8709-39d65c196d75}, !- Handle
  Surface 18,                             !- Name
  RoofCeiling,                            !- Surface Type
  ,                                       !- Construction Name
  {4be06e6c-b70c-4056-883e-44044bbe0ed7}, !- Space Name
  Surface,                                !- Outside Boundary Condition
  {eb49e991-1f39-4309-aecd-f3c1ddc7dc3b}, !- Outside Boundary Condition Object
  NoSun,                                  !- Sun Exposure
  NoWind,                                 !- Wind Exposure
  ,                                       !- View Factor to Ground
  ,                                       !- Number of Vertices
  4.44089209850063e-15, 1.07106781186548, 4, !- X,Y,Z Vertex 1 {m}
  4.44089209850063e-15, 0, 4,             !- X,Y,Z Vertex 2 {m}
  3, -3, 4,                               !- X,Y,Z Vertex 3 {m}
  3, 4.07106781186548, 4;                 !- X,Y,Z Vertex 4 {m}

OS:Space,
  {d1ec0d52-dfcd-457b-a0f1-8f39317ee8c5}, !- Handle
  Story 1 South Perimeter Space,          !- Name
  ,                                       !- Space Type Name
  ,                                       !- Default Construction Set Name
  ,                                       !- Default Schedule Set Name
  -0,                                     !- Direction of Relative North {deg}
  0,                                      !- X Origin {m}
  0,                                      !- Y Origin {m}
  0,                                      !- Z Origin {m}
  {79c62aa8-8db5-413a-83c1-fd3df9166694}, !- Building Story Name
  {185b2531-2c36-4973-af6b-306c53314be3}; !- Thermal Zone Name

OS:Surface,
  {281c19f9-7ae8-4262-80be-931e748adb20}, !- Handle
  Surface 19,                             !- Name
  Floor,                                  !- Surface Type
  ,                                       !- Construction Name
  {d1ec0d52-dfcd-457b-a0f1-8f39317ee8c5}, !- Space Name
  Ground,                                 !- Outside Boundary Condition
  ,                                       !- Outside Boundary Condition Object
  NoSun,                                  !- Sun Exposure
  NoWind,                                 !- Wind Exposure
  ,                                       !- View Factor to Ground
  ,                                       !- Number of Vertices
  7.07106781186548, 0, 0,                 !- X,Y,Z Vertex 1 {m}
  0, 0, 0,                                !- X,Y,Z Vertex 2 {m}
  3, 3, 0,                                !- X,Y,Z Vertex 3 {m}
  4.07106781186548, 3, 0;                 !- X,Y,Z Vertex 4 {m}

OS:Surface,
  {a337eca2-cd80-4cb4-a7dd-c370123c376a}, !- Handle
  Surface 20,                             !- Name
  Wall,                                   !- Surface Type
  ,                                       !- Construction Name
  {d1ec0d52-dfcd-457b-a0f1-8f39317ee8c5}, !- Space Name
  Outdoors,                               !- Outside Boundary Condition
  ,                                       !- Outside Boundary Condition Object
  SunExposed,                             !- Sun Exposure
  WindExposed,                            !- Wind Exposure
  ,                                       !- View Factor to Ground
  ,                                       !- Number of Vertices
  0, 0, 4,                                !- X,Y,Z Vertex 1 {m}
  0, 0, 0,                                !- X,Y,Z Vertex 2 {m}
  7.07106781186548, 0, 0,                 !- X,Y,Z Vertex 3 {m}
  7.07106781186548, 0, 4;                 !- X,Y,Z Vertex 4 {m}

OS:Surface,
  {c931bf40-c8dd-4156-8731-4458893f81d7}, !- Handle
  Surface 21,                             !- Name
  Wall,                                   !- Surface Type
  ,                                       !- Construction Name
  {d1ec0d52-dfcd-457b-a0f1-8f39317ee8c5}, !- Space Name
  Surface,                                !- Outside Boundary Condition
  {11161024-5091-433f-911a-204e621d6afc}, !- Outside Boundary Condition Object
  NoSun,                                  !- Sun Exposure
  NoWind,                                 !- Wind Exposure
  ,                                       !- View Factor to Ground
  ,                                       !- Number of Vertices
  3, 3, 4,                                !- X,Y,Z Vertex 1 {m}
  3, 3, 0,                                !- X,Y,Z Vertex 2 {m}
  0, 0, 0,                                !- X,Y,Z Vertex 3 {m}
  0, 0, 4;                                !- X,Y,Z Vertex 4 {m}

OS:Surface,
  {c5b30c03-f518-4152-8e3b-e65a4b22c0d2}, !- Handle
  Surface 22,                             !- Name
  Wall,                                   !- Surface Type
  ,                                       !- Construction Name
  {d1ec0d52-dfcd-457b-a0f1-8f39317ee8c5}, !- Space Name
  Surface,                                !- Outside Boundary Condition
  {c5a7d631-8733-4dd1-9ce9-c3f36278b1b3}, !- Outside Boundary Condition Object
  NoSun,                                  !- Sun Exposure
  NoWind,                                 !- Wind Exposure
  ,                                       !- View Factor to Ground
  ,                                       !- Number of Vertices
  4.07106781186548, 3, 4,                 !- X,Y,Z Vertex 1 {m}
  4.07106781186548, 3, 0,                 !- X,Y,Z Vertex 2 {m}
  3, 3, 0,                                !- X,Y,Z Vertex 3 {m}
  3, 3, 4;                                !- X,Y,Z Vertex 4 {m}

OS:Surface,
  {e8d56972-bbf3-4b24-8d78-08b9c08cc79c}, !- Handle
  Surface 23,                             !- Name
  Wall,                                   !- Surface Type
  ,                                       !- Construction Name
  {d1ec0d52-dfcd-457b-a0f1-8f39317ee8c5}, !- Space Name
  Surface,                                !- Outside Boundary Condition
  {a052a83e-1d88-4110-b626-82107eb078dd}, !- Outside Boundary Condition Object
  NoSun,                                  !- Sun Exposure
  NoWind,                                 !- Wind Exposure
  ,                                       !- View Factor to Ground
  ,                                       !- Number of Vertices
  7.07106781186548, 0, 4,                 !- X,Y,Z Vertex 1 {m}
  7.07106781186548, 0, 0,                 !- X,Y,Z Vertex 2 {m}
  4.07106781186548, 3, 0,                 !- X,Y,Z Vertex 3 {m}
  4.07106781186548, 3, 4;                 !- X,Y,Z Vertex 4 {m}

OS:Surface,
  {942bc22e-d4e1-464d-9df3-ec2ff64c3f1b}, !- Handle
  Surface 24,                             !- Name
  RoofCeiling,                            !- Surface Type
  ,                                       !- Construction Name
  {d1ec0d52-dfcd-457b-a0f1-8f39317ee8c5}, !- Space Name
  Surface,                                !- Outside Boundary Condition
  {f4c489dd-1c11-4c82-89c4-fb6bcf71ccea}, !- Outside Boundary Condition Object
  NoSun,                                  !- Sun Exposure
  NoWind,                                 !- Wind Exposure
  ,                                       !- View Factor to Ground
  ,                                       !- Number of Vertices
  4.07106781186548, 3, 4,                 !- X,Y,Z Vertex 1 {m}
  3, 3, 4,                                !- X,Y,Z Vertex 2 {m}
  0, 0, 4,                                !- X,Y,Z Vertex 3 {m}
  7.07106781186548, 0, 4;                 !- X,Y,Z Vertex 4 {m}

OS:Space,
  {88fca786-69af-4df2-85b5-437b9c045242}, !- Handle
  Story 1 Core Space,                     !- Name
  ,                                       !- Space Type Name
  ,                                       !- Default Construction Set Name
  ,                                       !- Default Schedule Set Name
  -0,                                     !- Direction of Relative North {deg}
  3,                                      !- X Origin {m}
  3,                                      !- Y Origin {m}
  0,                                      !- Z Origin {m}
  {79c62aa8-8db5-413a-83c1-fd3df9166694}, !- Building Story Name
  {d5706242-b9ec-405e-b5f3-74c08ca0c36a}; !- Thermal Zone Name

OS:Surface,
  {e9c73151-2eff-475d-8332-782a46033101}, !- Handle
  Surface 25,                             !- Name
  Floor,                                  !- Surface Type
  ,                                       !- Construction Name
  {88fca786-69af-4df2-85b5-437b9c045242}, !- Space Name
  Ground,                                 !- Outside Boundary Condition
  ,                                       !- Outside Boundary Condition Object
  NoSun,                                  !- Sun Exposure
  NoWind,                                 !- Wind Exposure
  ,                                       !- View Factor to Ground
  ,                                       !- Number of Vertices
  0, 0, 0,                                !- X,Y,Z Vertex 1 {m}
  0, 1.07106781186548, 0,                 !- X,Y,Z Vertex 2 {m}
  1.07106781186548, 1.07106781186548, 0,  !- X,Y,Z Vertex 3 {m}
  1.07106781186548, 0, 0;                 !- X,Y,Z Vertex 4 {m}

OS:Surface,
  {1722ff44-911f-4129-9149-6de15a9bc5e9}, !- Handle
  Surface 26,                             !- Name
  Wall,                                   !- Surface Type
  ,                                       !- Construction Name
  {88fca786-69af-4df2-85b5-437b9c045242}, !- Space Name
  Surface,                                !- Outside Boundary Condition
  {31d9e663-5743-473a-949b-51d2042942ed}, !- Outside Boundary Condition Object
  NoSun,                                  !- Sun Exposure
  NoWind,                                 !- Wind Exposure
  ,                                       !- View Factor to Ground
  ,                                       !- Number of Vertices
  0, 1.07106781186548, 4,                 !- X,Y,Z Vertex 1 {m}
  0, 1.07106781186548, 0,                 !- X,Y,Z Vertex 2 {m}
  0, 0, 0,                                !- X,Y,Z Vertex 3 {m}
  0, 0, 4;                                !- X,Y,Z Vertex 4 {m}

OS:Surface,
  {b452aff1-da61-4b53-a37b-e6d232793446}, !- Handle
  Surface 27,                             !- Name
  Wall,                                   !- Surface Type
  ,                                       !- Construction Name
  {88fca786-69af-4df2-85b5-437b9c045242}, !- Space Name
  Surface,                                !- Outside Boundary Condition
  {90c2e1f1-db15-4930-b676-f059af9a66b7}, !- Outside Boundary Condition Object
  NoSun,                                  !- Sun Exposure
  NoWind,                                 !- Wind Exposure
  ,                                       !- View Factor to Ground
  ,                                       !- Number of Vertices
  1.07106781186548, 1.07106781186548, 4,  !- X,Y,Z Vertex 1 {m}
  1.07106781186548, 1.07106781186548, 0,  !- X,Y,Z Vertex 2 {m}
  0, 1.07106781186548, 0,                 !- X,Y,Z Vertex 3 {m}
  0, 1.07106781186548, 4;                 !- X,Y,Z Vertex 4 {m}

OS:Surface,
  {d14d79d5-a08b-48e6-adda-4db869dd62a4}, !- Handle
  Surface 28,                             !- Name
  Wall,                                   !- Surface Type
  ,                                       !- Construction Name