
OS:Version,
  {58192522-37d8-4ad9-9218-f3705dabd739}, !- Handle
  0.10.0;                                 !- Version Identifier

OS:BuildingStory,
  {88ddbb40-7906-4ac0-9b4f-f4a67383b50e}, !- Handle
  Story 1,                                !- Name
  0,                                      !- Nominal Z Coordinate {m}
  4,                                      !- Nominal Floor to Floor Height {m}
  ,                                       !- Default Construction Set Name
  ,                                       !- Default Schedule Set Name
  ;                                       !- Group Rendering Name

OS:Space,
  {5028ad80-e5fe-40b8-834b-8610a4dc1fbf}, !- Handle
  Story 1 West Perimeter Space,           !- Name
  ,                                       !- Space Type Name
  ,                                       !- Default Construction Set Name
  ,                                       !- Default Schedule Set Name
  -0,                                     !- Direction of Relative North {deg}
  0,                                      !- X Origin {m}
  0,                                      !- Y Origin {m}
  0,                                      !- Z Origin {m}
  {88ddbb40-7906-4ac0-9b4f-f4a67383b50e}, !- Building Story Name
  {a84eddc2-a513-48da-a483-7ec92c2b65e1}; !- Thermal Zone Name

OS:Surface,
  {cac00d10-9c12-4831-956e-b82bdaded98b}, !- Handle
  Surface 1,                              !- Name
  Floor,                                  !- Surface Type
  ,                                       !- Construction Name
  {5028ad80-e5fe-40b8-834b-8610a4dc1fbf}, !- Space Name
  Ground,                                 !- Outside Boundary Condition
  ,                                       !- Outside Boundary Condition Object
  NoSun,                                  !- Sun Exposure
  NoWind,                                 !- Wind Exposure
  ,                                       !- View Factor to Ground
  ,                                       !- Number of Vertices
  0, 0, 0,                                !- X,Y,Z Vertex 1 {m}
  0, 31.6175056996384, 0,                 !- X,Y,Z Vertex 2 {m}
  3, 28.6175056996384, 0,                 !- X,Y,Z Vertex 3 {m}
  3, 3, 0;                                !- X,Y,Z Vertex 4 {m}

OS:Surface,
  {62d7bc8d-1231-47bb-96b6-814576abd5e9}, !- Handle
  Surface 2,                              !- Name
  Wall,                                   !- Surface Type
  ,                                       !- Construction Name
  {5028ad80-e5fe-40b8-834b-8610a4dc1fbf}, !- Space Name
  Outdoors,                               !- Outside Boundary Condition
  ,                                       !- Outside Boundary Condition Object
  SunExposed,                             !- Sun Exposure
  WindExposed,                            !- Wind Exposure
  ,                                       !- View Factor to Ground
  ,                                       !- Number of Vertices
  0, 31.6175056996384, 4,                 !- X,Y,Z Vertex 1 {m}
  0, 31.6175056996384, 0,                 !- X,Y,Z Vertex 2 {m}
  0, 0, 0,                                !- X,Y,Z Vertex 3 {m}
  0, 0, 4;                                !- X,Y,Z Vertex 4 {m}

OS:Surface,
  {5398a306-541c-4939-bd19-08bc9b0a7fae}, !- Handle
  Surface 3,                              !- Name
  Wall,                                   !- Surface Type
  ,                                       !- Construction Name
  {5028ad80-e5fe-40b8-834b-8610a4dc1fbf}, !- Space Name
  Surface,                                !- Outside Boundary Condition
  {23ec0d96-a7c3-42e6-adbb-565ff4e49e6a}, !- Outside Boundary Condition Object
  NoSun,                                  !- Sun Exposure
  NoWind,                                 !- Wind Exposure
  ,                                       !- View Factor to Ground
  ,                                       !- Number of Vertices
  3, 28.6175056996384, 4,                 !- X,Y,Z Vertex 1 {m}
  3, 28.6175056996384, 0,                 !- X,Y,Z Vertex 2 {m}
  0, 31.6175056996384, 0,                 !- X,Y,Z Vertex 3 {m}
  0, 31.6175056996384, 4;                 !- X,Y,Z Vertex 4 {m}

OS:Surface,
  {ab42b747-1b18-4879-b4b0-287c5d528c89}, !- Handle
  Surface 4,                              !- Name
  Wall,                                   !- Surface Type
  ,                                       !- Construction Name
  {5028ad80-e5fe-40b8-834b-8610a4dc1fbf}, !- Space Name
  Surface,                                !- Outside Boundary Condition
  {9d4b9a60-6c54-42d5-b914-ea95631e5b1a}, !- Outside Boundary Condition Object
  NoSun,                                  !- Sun Exposure
  NoWind,                                 !- Wind Exposure
  ,                                       !- View Factor to Ground
  ,                                       !- Number of Vertices
  3, 3, 4,                                !- X,Y,Z Vertex 1 {m}
  3, 3, 0,                                !- X,Y,Z Vertex 2 {m}
  3, 28.6175056996384, 0,                 !- X,Y,Z Vertex 3 {m}
  3, 28.6175056996384, 4;                 !- X,Y,Z Vertex 4 {m}

OS:Surface,
  {034649f2-5a7b-4c20-be48-16f8243a30fc}, !- Handle
  Surface 5,                              !- Name
  Wall,                                   !- Surface Type
  ,                                       !- Construction Name
  {5028ad80-e5fe-40b8-834b-8610a4dc1fbf}, !- Space Name
  Surface,                                !- Outside Boundary Condition
  {85246319-c1a2-40c4-90ff-34b854bb1e1a}, !- Outside Boundary Condition Object
  NoSun,                                  !- Sun Exposure
  NoWind,                                 !- Wind Exposure
  ,                                       !- View Factor to Ground
  ,                                       !- Number of Vertices
  0, 0, 4,                                !- X,Y,Z Vertex 1 {m}
  0, 0, 0,                                !- X,Y,Z Vertex 2 {m}
  3, 3, 0,                                !- X,Y,Z Vertex 3 {m}
  3, 3, 4;                                !- X,Y,Z Vertex 4 {m}

OS:Surface,
  {f649f62f-b539-4d24-a995-560fb9528174}, !- Handle
  Surface 6,                              !- Name
  RoofCeiling,                            !- Surface Type
  ,                                       !- Construction Name
  {5028ad80-e5fe-40b8-834b-8610a4dc1fbf}, !- Space Name
  Surface,                                !- Outside Boundary Condition
  {be74c24a-6eca-47f0-9c28-372db89207b5}, !- Outside Boundary Condition Object
  NoSun,                                  !- Sun Exposure
  NoWind,                                 !- Wind Exposure
  ,                                       !- View Factor to Ground
  ,                                       !- Number of Vertices
  3, 3, 4,                                !- X,Y,Z Vertex 1 {m}
  3, 28.6175056996384, 4,                 !- X,Y,Z Vertex 2 {m}
  0, 31.6175056996384, 4,                 !- X,Y,Z Vertex 3 {m}
  0, 0, 4;                                !- X,Y,Z Vertex 4 {m}

OS:Space,
  {4f3ac677-e28f-41c6-8199-2cb87ae773e9}, !- Handle
  Story 1 North Perimeter Space,          !- Name
  ,                                       !- Space Type Name
  ,                                       !- Default Construction Set Name
  ,                                       !- Default Schedule Set Name
  -0,                                     !- Direction of Relative North {deg}
  3,                                      !- X Origin {m}
  28.6175056996384,                       !- Y Origin {m}
  0,                                      !- Z Origin {m}
  {88ddbb40-7906-4ac0-9b4f-f4a67383b50e}, !- Building Story Name
  {bccca1ce-81d6-4e9a-856b-2f703be96e3d}; !- Thermal Zone Name

OS:Surface,
  {48a39d1c-32d3-415e-b4d2-cb402c7f1c29}, !- Handle
  Surface 7,                              !- Name
  Floor,                                  !- Surface Type
  ,                                       !- Construction Name
  {4f3ac677-e28f-41c6-8199-2cb87ae773e9}, !- Space Name
  Ground,                                 !- Outside Boundary Condition
  ,                                       !- Outside Boundary Condition Object
  NoSun,                                  !- Sun Exposure
  NoWind,                                 !- Wind Exposure
  ,                                       !- View Factor to Ground
  ,                                       !- Number of Vertices
  -3, 3, 0,                               !- X,Y,Z Vertex 1 {m}
  28.6175056996384, 3, 0,                 !- X,Y,Z Vertex 2 {m}
  25.6175056996384, 0, 0,                 !- X,Y,Z Vertex 3 {m}
  0, 0, 0;                                !- X,Y,Z Vertex 4 {m}

OS:Surface,
  {53c3eab1-3892-44d0-84a6-eefbb4907028}, !- Handle
  Surface 8,                              !- Name
  Wall,                                   !- Surface Type
  ,                                       !- Construction Name
  {4f3ac677-e28f-41c6-8199-2cb87ae773e9}, !- Space Name
  Outdoors,                               !- Outside Boundary Condition
  ,                                       !- Outside Boundary Condition Object
  SunExposed,                             !- Sun Exposure
  WindExposed,                            !- Wind Exposure
  ,                                       !- View Factor to Ground
  ,                                       !- Number of Vertices
  28.6175056996384, 3, 4,                 !- X,Y,Z Vertex 1 {m}
  28.6175056996384, 3, 0,                 !- X,Y,Z Vertex 2 {m}
  -3, 3, 0,                               !- X,Y,Z Vertex 3 {m}
  -3, 3, 4;                               !- X,Y,Z Vertex 4 {m}

OS:Surface,
  {06fd926c-9e67-4118-908b-33b45ed7e08f}, !- Handle
  Surface 9,                              !- Name
  Wall,                                   !- Surface Type
  ,                                       !- Construction Name
  {4f3ac677-e28f-41c6-8199-2cb87ae773e9}, !- Space Name
  Surface,                                !- Outside Boundary Condition
  {5954fcf4-a050-4717-9d2a-23be9e1fe83d}, !- Outside Boundary Condition Object
  NoSun,                                  !- Sun Exposure
  NoWind,                                 !- Wind Exposure
  ,                                       !- View Factor to Ground
  ,                                       !- Number of Vertices
  25.6175056996384, 0, 4,                 !- X,Y,Z Vertex 1 {m}
  25.6175056996384, 0, 0,                 !- X,Y,Z Vertex 2 {m}
  28.6175056996384, 3, 0,                 !- X,Y,Z Vertex 3 {m}
  28.6175056996384, 3, 4;                 !- X,Y,Z Vertex 4 {m}

OS:Surface,
  {6aa91711-4bd7-4ada-8d58-4f426b8c05cb}, !- Handle
  Surface 10,                             !- Name
  Wall,                                   !- Surface Type
  ,                                       !- Construction Name
  {4f3ac677-e28f-41c6-8199-2cb87ae773e9}, !- Space Name
  Surface,                                !- Outside Boundary Condition
  {f07175e1-0f13-48e0-b09c-fbd6fe53eb12}, !- Outside Boundary Condition Object
  NoSun,                                  !- Sun Exposure
  NoWind,                                 !- Wind Exposure
  ,                                       !- View Factor to Ground
  ,                                       !- Number of Vertices
  0, 0, 4,                                !- X,Y,Z Vertex 1 {m}
  0, 0, 0,                                !- X,Y,Z Vertex 2 {m}
  25.6175056996384, 0, 0,                 !- X,Y,Z Vertex 3 {m}
  25.6175056996384, 0, 4;                 !- X,Y,Z Vertex 4 {m}

OS:Surface,
  {23ec0d96-a7c3-42e6-adbb-565ff4e49e6a}, !- Handle
  Surface 11,                             !- Name
  Wall,                                   !- Surface Type
  ,                                       !- Construction Name
  {4f3ac677-e28f-41c6-8199-2cb87ae773e9}, !- Space Name
  Surface,                                !- Outside Boundary Condition
  {5398a306-541c-4939-bd19-08bc9b0a7fae}, !- Outside Boundary Condition Object
  NoSun,                                  !- Sun Exposure
  NoWind,                                 !- Wind Exposure
  ,                                       !- View Factor to Ground
  ,                                       !- Number of Vertices
  -3, 3, 4,                               !- X,Y,Z Vertex 1 {m}
  -3, 3, 0,                               !- X,Y,Z Vertex 2 {m}
  0, 0, 0,                                !- X,Y,Z Vertex 3 {m}
  0, 0, 4;                                !- X,Y,Z Vertex 4 {m}

OS:Surface,
  {1cb964a2-a613-4909-94a1-0dbb39b6542b}, !- Handle
  Surface 12,                             !- Name
  RoofCeiling,                            !- Surface Type
  ,                                       !- Construction Name
  {4f3ac677-e28f-41c6-8199-2cb87ae773e9}, !- Space Name
  Surface,                                !- Outside Boundary Condition
  {a4ff9115-1ce2-408a-af55-bfe3986706bf}, !- Outside Boundary Condition Object
  NoSun,                                  !- Sun Exposure
  NoWind,                                 !- Wind Exposure
  ,                                       !- View Factor to Ground
  ,                                       !- Number of Vertices
  0, 0, 4,                                !- X,Y,Z Vertex 1 {m}
  25.6175056996384, 0, 4,                 !- X,Y,Z Vertex 2 {m}
  28.6175056996384, 3, 4,                 !- X,Y,Z Vertex 3 {m}
  -3, 3, 4;                               !- X,Y,Z Vertex 4 {m}

OS:Space,
  {d15fdcd3-df7f-4400-a8f0-fda38d27a538}, !- Handle
  Story 1 East Perimeter Space,           !- Name
  ,                                       !- Space Type Name
  ,                                       !- Default Construction Set Name
  ,                                       !- Default Schedule Set Name
  -0,                                     !- Direction of Relative North {deg}
  28.6175056996384,                       !- X Origin {m}
  3,                                      !- Y Origin {m}
  0,                                      !- Z Origin {m}
  {88ddbb40-7906-4ac0-9b4f-f4a67383b50e}, !- Building Story Name
  {c02e3505-0dab-448b-ab86-40d27a3c1d75}; !- Thermal Zone Name

OS:Surface,
  {af06691f-b5b9-40d7-b3b2-4e1e11e8e2d7}, !- Handle
  Surface 13,                             !- Name
  Floor,                                  !- Surface Type
  ,                                       !- Construction Name
  {d15fdcd3-df7f-4400-a8f0-fda38d27a538}, !- Space Name
  Ground,                                 !- Outside Boundary Condition
  ,                                       !- Outside Boundary Condition Object
  NoSun,                                  !- Sun Exposure
  NoWind,                                 !- Wind Exposure
  ,                                       !- View Factor to Ground
  ,                                       !- Number of Vertices
  3, 28.6175056996384, 0,                 !- X,Y,Z Vertex 1 {m}
  3, -3, 0,                               !- X,Y,Z Vertex 2 {m}
  0, 0, 0,                                !- X,Y,Z Vertex 3 {m}
  0, 25.6175056996384, 0;                 !- X,Y,Z Vertex 4 {m}

OS:Surface,
  {e82c4b80-381f-424e-8473-70ac53ad4224}, !- Handle
  Surface 14,                             !- Name
  Wall,                                   !- Surface Type
  ,                                       !- Construction Name
  {d15fdcd3-df7f-4400-a8f0-fda38d27a538}, !- Space Name
  Outdoors,                               !- Outside Boundary Condition
  ,                                       !- Outside Boundary Condition Object
  SunExposed,                             !- Sun Exposure
  WindExposed,                            !- Wind Exposure
  ,                                       !- View Factor to Ground
  ,                                       !- Number of Vertices
  3, -3, 4,                               !- X,Y,Z Vertex 1 {m}
  3, -3, 0,                               !- X,Y,Z Vertex 2 {m}
  3, 28.6175056996384, 0,                 !- X,Y,Z Vertex 3 {m}
  3, 28.6175056996384, 4;                 !- X,Y,Z Vertex 4 {m}

OS:Surface,
  {4817fc09-c103-4fcf-811e-f8dda033f9e8}, !- Handle
  Surface 15,                             !- Name
  Wall,                                   !- Surface Type
  ,                                       !- Construction Name
  {d15fdcd3-df7f-4400-a8f0-fda38d27a538}, !- Space Name
  Surface,                                !- Outside Boundary Condition
  {f5b8a09c-b150-4fda-a177-1c21b069bcb1}, !- Outside Boundary Condition Object
  NoSun,                                  !- Sun Exposure
  NoWind,                                 !- Wind Exposure
  ,                                       !- View Factor to Ground
  ,                                       !- Number of Vertices
  0, 0, 4,                                !- X,Y,Z Vertex 1 {m}
  0, 0, 0,                                !- X,Y,Z Vertex 2 {m}
  3, -3, 0,                               !- X,Y,Z Vertex 3 {m}
  3, -3, 4;                               !- X,Y,Z Vertex 4 {m}

OS:Surface,
  {3c900ade-8487-474e-946f-c3427eea2076}, !- Handle
  Surface 16,                             !- Name
  Wall,                                   !- Surface Type
  ,                                       !- Construction Name
  {d15fdcd3-df7f-4400-a8f0-fda38d27a538}, !- Space Name
  Surface,                                !- Outside Boundary Condition
  {0b9b658d-60b7-46e2-a330-0249802fe6fb}, !- Outside Boundary Condition Object
  NoSun,                                  !- Sun Exposure
  NoWind,                                 !- Wind Exposure
  ,                                       !- View Factor to Ground
  ,                                       !- Number of Vertices
  0, 25.6175056996384, 4,                 !- X,Y,Z Vertex 1 {m}
  0, 25.6175056996384, 0,                 !- X,Y,Z Vertex 2 {m}
  0, 0, 0,                                !- X,Y,Z Vertex 3 {m}
  0, 0, 4;                                !- X,Y,Z Vertex 4 {m}

OS:Surface,
  {5954fcf4-a050-4717-9d2a-23be9e1fe83d}, !- Handle
  Surface 17,                             !- Name
  Wall,                                   !- Surface Type
  ,                                       !- Construction Name
  {d15fdcd3-df7f-4400-a8f0-fda38d27a538}, !- Space Name
  Surface,                                !- Outside Boundary Condition
  {06fd926c-9e67-4118-908b-33b45ed7e08f}, !- Outside Boundary Condition Object
  NoSun,                                  !- Sun Exposure
  NoWind,                                 !- Wind Exposure
  ,                                       !- View Factor to Ground
  ,                                       !- Number of Vertices
  3, 28.6175056996384, 4,                 !- X,Y,Z Vertex 1 {m}
  3, 28.6175056996384, 0,                 !- X,Y,Z Vertex 2 {m}
  0, 25.6175056996384, 0,                 !- X,Y,Z Vertex 3 {m}
  0, 25.6175056996384, 4;                 !- X,Y,Z Vertex 4 {m}

OS:Surface,
  {2622d349-33df-4123-a131-64a165d2d8fd}, !- Handle
  Surface 18,                             !- Name
  RoofCeiling,                            !- Surface Type
  ,                                       !- Construction Name
  {d15fdcd3-df7f-4400-a8f0-fda38d27a538}, !- Space Name
  Surface,                                !- Outside Boundary Condition
  {2ec7c3bc-3653-45ea-9138-1702f82da6ae}, !- Outside Boundary Condition Object
  NoSun,                                  !- Sun Exposure
  NoWind,                                 !- Wind Exposure
  ,                                       !- View Factor to Ground
  ,                                       !- Number of Vertices
  0, 25.6175056996384, 4,                 !- X,Y,Z Vertex 1 {m}
  0, 0, 4,                                !- X,Y,Z Vertex 2 {m}
  3, -3, 4,                               !- X,Y,Z Vertex 3 {m}
  3, 28.6175056996384, 4;                 !- X,Y,Z Vertex 4 {m}

OS:Space,
  {a4bd07df-4097-4c31-9980-0ca303cac5cd}, !- Handle
  Story 1 South Perimeter Space,          !- Name
  ,                                       !- Space Type Name
  ,                                       !- Default Construction Set Name
  ,                                       !- Default Schedule Set Name
  -0,                                     !- Direction of Relative North {deg}
  0,                                      !- X Origin {m}
  0,                                      !- Y Origin {m}
  0,                                      !- Z Origin {m}
  {88ddbb40-7906-4ac0-9b4f-f4a67383b50e}, !- Building Story Name
  {84234dd4-fdf0-41ef-9c67-edd0aee8ff01}; !- Thermal Zone Name

OS:Surface,
  {9d9edcd4-b2b7-460f-b1ef-e06a4183f294}, !- Handle
  Surface 19,                             !- Name
  Floor,                                  !- Surface Type
  ,                                       !- Construction Name
  {a4bd07df-4097-4c31-9980-0ca303cac5cd}, !- Space Name
  Ground,                                 !- Outside Boundary Condition
  ,                                       !- Outside Boundary Condition Object
  NoSun,                                  !- Sun Exposure
  NoWind,                                 !- Wind Exposure
  ,                                       !- View Factor to Ground
  ,                                       !- Number of Vertices
  31.6175056996384, 0, 0,                 !- X,Y,Z Vertex 1 {m}
  0, 0, 0,                                !- X,Y,Z Vertex 2 {m}
  3, 3, 0,                                !- X,Y,Z Vertex 3 {m}
  28.6175056996384, 3, 0;                 !- X,Y,Z Vertex 4 {m}

OS:Surface,
  {2ff2af75-4a94-4662-9780-383537d023dd}, !- Handle
  Surface 20,                             !- Name
  Wall,                                   !- Surface Type
  ,                                       !- Construction Name
  {a4bd07df-4097-4c31-9980-0ca303cac5cd}, !- Space Name
  Outdoors,                               !- Outside Boundary Condition
  ,                                       !- Outside Boundary Condition Object
  SunExposed,                             !- Sun Exposure
  WindExposed,                            !- Wind Exposure
  ,                                       !- View Factor to Ground
  ,                                       !- Number of Vertices
  0, 0, 4,                                !- X,Y,Z Vertex 1 {m}
  0, 0, 0,                                !- X,Y,Z Vertex 2 {m}
  31.6175056996384, 0, 0,                 !- X,Y,Z Vertex 3 {m}
  31.6175056996384, 0, 4;                 !- X,Y,Z Vertex 4 {m}

OS:Surface,
  {85246319-c1a2-40c4-90ff-34b854bb1e1a}, !- Handle
  Surface 21,                             !- Name
  Wall,                                   !- Surface Type
  ,                                       !- Construction Name
  {a4bd07df-4097-4c31-9980-0ca303cac5cd}, !- Space Name
  Surface,                                !- Outside Boundary Condition
  {034649f2-5a7b-4c20-be48-16f8243a30fc}, !- Outside Boundary Condition Object
  NoSun,                                  !- Sun Exposure
  NoWind,                                 !- Wind Exposure
  ,                                       !- View Factor to Ground
  ,                                       !- Number of Vertices
  3, 3, 4,                                !- X,Y,Z Vertex 1 {m}
  3, 3, 0,                                !- X,Y,Z Vertex 2 {m}
  0, 0, 0,                                !- X,Y,Z Vertex 3 {m}
  0, 0, 4;                                !- X,Y,Z Vertex 4 {m}

OS:Surface,
  {d3f56ccc-7c03-4892-b10f-50129f84b6bf}, !- Handle
  Surface 22,                             !- Name
  Wall,                                   !- Surface Type
  ,                                       !- Construction Name
  {a4bd07df-4097-4c31-9980-0ca303cac5cd}, !- Space Name
  Surface,                                !- Outside Boundary Condition
  {a00b86c6-5f05-42b1-86b6-13038745c8d9}, !- Outside Boundary Condition Object
  NoSun,                                  !- Sun Exposure
  NoWind,                                 !- Wind Exposure
  ,                                       !- View Factor to Ground
  ,                                       !- Number of Vertices
  28.6175056996384, 3, 4,                 !- X,Y,Z Vertex 1 {m}
  28.6175056996384, 3, 0,                 !- X,Y,Z Vertex 2 {m}
  3, 3, 0,                                !- X,Y,Z Vertex 3 {m}
  3, 3, 4;                                !- X,Y,Z Vertex 4 {m}

OS:Surface,
  {f5b8a09c-b150-4fda-a177-1c21b069bcb1}, !- Handle
  Surface 23,                             !- Name
  Wall,                                   !- Surface Type
  ,                                       !- Construction Name
  {a4bd07df-4097-4c31-9980-0ca303cac5cd}, !- Space Name
  Surface,                                !- Outside Boundary Condition
  {4817fc09-c103-4fcf-811e-f8dda033f9e8}, !- Outside Boundary Condition Object
  NoSun,                                  !- Sun Exposure
  NoWind,                                 !- Wind Exposure
  ,                                       !- View Factor to Ground
  ,                                       !- Number of Vertices
  31.6175056996384, 0, 4,                 !- X,Y,Z Vertex 1 {m}
  31.6175056996384, 0, 0,                 !- X,Y,Z Vertex 2 {m}
  28.6175056996384, 3, 0,                 !- X,Y,Z Vertex 3 {m}
  28.6175056996384, 3, 4;                 !- X,Y,Z Vertex 4 {m}

OS:Surface,
  {49fbe48f-a9f2-4386-b7b9-95f6f7a95e63}, !- Handle
  Surface 24,                             !- Name
  RoofCeiling,                            !- Surface Type
  ,                                       !- Construction Name
  {a4bd07df-4097-4c31-9980-0ca303cac5cd}, !- Space Name
  Surface,                                !- Outside Boundary Condition
  {7b6cf238-194a-49a0-a10a-bb5020b4726d}, !- Outside Boundary Condition Object
  NoSun,                                  !- Sun Exposure
  NoWind,                                 !- Wind Exposure
  ,                                       !- View Factor to Ground
  ,                                       !- Number of Vertices
  28.6175056996384, 3, 4,                 !- X,Y,Z Vertex 1 {m}
  3, 3, 4,                                !- X,Y,Z Vertex 2 {m}
  0, 0, 4,                                !- X,Y,Z Vertex 3 {m}
  31.6175056996384, 0, 4;                 !- X,Y,Z Vertex 4 {m}

OS:Space,
  {c6288f2a-08a1-4db6-a6e1-480a65e5f5b8}, !- Handle
  Story 1 Core Space,                     !- Name
  ,                                       !- Space Type Name
  ,                                       !- Default Construction Set Name
  ,                                       !- Default Schedule Set Name
  -0,                                     !- Direction of Relative North {deg}
  3,                                      !- X Origin {m}
  3,                                      !- Y Origin {m}
  0,                                      !- Z Origin {m}
  {88ddbb40-7906-4ac0-9b4f-f4a67383b50e}, !- Building Story Name
  {fb806913-e2f6-44b0-b550-2d0776c08540}; !- Thermal Zone Name

OS:Surface,
  {784f4cb2-723a-4689-a9cd-62ceac954c77}, !- Handle
  Surface 25,                             !- Name
  Floor,                                  !- Surface Type
  ,                                       !- Construction Name
  {c6288f2a-08a1-4db6-a6e1-480a65e5f5b8}, !- Space Name
  Ground,                                 !- Outside Boundary Condition
  ,                                       !- Outside Boundary Condition Object
  NoSun,                                  !- Sun Exposure
  NoWind,                                 !- Wind Exposure
  ,                                       !- View Factor to Ground
  ,                                       !- Number of Vertices
  0, 0, 0,                                !- X,Y,Z Vertex 1 {m}
  0, 25.6175056996384, 0,                 !- X,Y,Z Vertex 2 {m}
  25.6175056996384, 25.6175056996384, 0,  !- X,Y,Z Vertex 3 {m}
  25.6175056996384, 0, 0;                 !- X,Y,Z Vertex 4 {m}

OS:Surface,
  {9d4b9a60-6c54-42d5-b914-ea95631e5b1a}, !- Handle
  Surface 26,                             !- Name
  Wall,                                   !- Surface Type
  ,                                       !- Construction Name
  {c6288f2a-08a1-4db6-a6e1-480a65e5f5b8}, !- Space Name
  Surface,                                !- Outside Boundary Condition
  {ab42b747-1b18-4879-b4b0-287c5d528c89}, !- Outside Boundary Condition Object
  NoSun,                                  !- Sun Exposure
  NoWind,                                 !- Wind Exposure
  ,                                       !- View Factor to Ground
  ,                                       !- Number of Vertices
  0, 25.6175056996384, 4,                 !- X,Y,Z Vertex 1 {m}
  0, 25.6175056996384, 0,                 !- X,Y,Z Vertex 2 {m}
  0, 0, 0,                                !- X,Y,Z Vertex 3 {m}
  0, 0, 4;                                !- X,Y,Z Vertex 4 {m}

OS:Surface,
  {f07175e1-0f13-48e0-b09c-fbd6fe53eb12}, !- Handle
  Surface 27,                             !- Name
  Wall,                                   !- Surface Type
  ,                                       !- Construction Name
  {c6288f2a-08a1-4db6-a6e1-480a65e5f5b8}, !- Space Name
  Surface,                                !- Outside Boundary Condition
  {6aa91711-4bd7-4ada-8d58-4f426b8c05cb}, !- Outside Boundary Condition Object
  NoSun,                                  !- Sun Exposure
  NoWind,                                 !- Wind Exposure
  ,                                       !- View Factor to Ground
  ,                                       !- Number of Vertices
  25.6175056996384, 25.6175056996384, 4,  !- X,Y,Z Vertex 1 {m}
  25.6175056996384, 25.6175056996384, 0,  !- X,Y,Z Vertex 2 {m}
  0, 25.6175056996384, 0,                 !- X,Y,Z Vertex 3 {m}
  0, 25.6175056996384, 4;                 !- X,Y,Z Vertex 4 {m}

OS:Surface,
  {0b9b658d-60b7-46e2-a330-0249802fe6fb}, !- Handle
  Surface 28,                             !- Name
  Wall,                                   !- Surface Type
  ,                                       !- Construction Name
  {c6288f2a-08a1-4db6-a6e1-480a65e5f5b8}, !- Space Name