
OS:Version,
  {abc5a301-1028-460e-a890-cf93b3ae9819}, !- Handle
  0.10.0;                                 !- Version Identifier

OS:BuildingStory,
  {9a16e18c-e207-4f46-9052-b6c7f21eaa09}, !- Handle
  Story 1,                                !- Name
  0,                                      !- Nominal Z Coordinate {m}
  4,                                      !- Nominal Floor to Floor Height {m}
  ,                                       !- Default Construction Set Name
  ,                                       !- Default Schedule Set Name
  ;                                       !- Group Rendering Name

OS:Space,
  {39e4eb0f-5c52-43a8-ad61-80f9cc632338}, !- Handle
  Story 1 West Perimeter Space,           !- Name
  ,                                       !- Space Type Name
  ,                                       !- Default Construction Set Name
  ,                                       !- Default Schedule Set Name
  -0,                                     !- Direction of Relative North {deg}
  0,                                      !- X Origin {m}
  0,                                      !- Y Origin {m}
  0,                                      !- Z Origin {m}
  {9a16e18c-e207-4f46-9052-b6c7f21eaa09}, !- Building Story Name
  {bc88c919-d5ef-4cd6-800b-76c8f2b68abe}; !- Thermal Zone Name

OS:Surface,
  {b5ef7a07-d39c-4228-bee7-ad17b99462f3}, !- Handle
  Surface 1,                              !- Name
  Floor,                                  !- Surface Type
  ,                                       !- Construction Name
  {39e4eb0f-5c52-43a8-ad61-80f9cc632338}, !- Space Name
  Ground,                                 !- Outside Boundary Condition
  ,                                       !- Outside Boundary Condition Object
  NoSun,                                  !- Sun Exposure
  NoWind,                                 !- Wind Exposure
  ,                                       !- View Factor to Ground
  ,                                       !- Number of Vertices
  0, 0, 0,                                !- X,Y,Z Vertex 1 {m}
  0, 11.1803398874989, 0,                 !- X,Y,Z Vertex 2 {m}
  3, 8.18033988749895, 0,                 !- X,Y,Z Vertex 3 {m}
  3, 3, 0;                                !- X,Y,Z Vertex 4 {m}

OS:Surface,
  {5fe771de-b641-4664-9008-ddecc5c52c41}, !- Handle
  Surface 2,                              !- Name
  Wall,                                   !- Surface Type
  ,                                       !- Construction Name
  {39e4eb0f-5c52-43a8-ad61-80f9cc632338}, !- Space Name
  Outdoors,                               !- Outside Boundary Condition
  ,                                       !- Outside Boundary Condition Object
  SunExposed,                             !- Sun Exposure
  WindExposed,                            !- Wind Exposure
  ,                                       !- View Factor to Ground
  ,                                       !- Number of Vertices
  0, 11.1803398874989, 4,                 !- X,Y,Z Vertex 1 {m}
  0, 11.1803398874989, 0,                 !- X,Y,Z Vertex 2 {m}
  0, 0, 0,                                !- X,Y,Z Vertex 3 {m}
  0, 0, 4;                                !- X,Y,Z Vertex 4 {m}

OS:Surface,
  {2dc4f368-515f-4c56-a627-00b0f26e7ec2}, !- Handle
  Surface 3,                              !- Name
  Wall,                                   !- Surface Type
  ,                                       !- Construction Name
  {39e4eb0f-5c52-43a8-ad61-80f9cc632338}, !- Space Name
  Surface,                                !- Outside Boundary Condition
  {80c9f078-2b72-4052-9799-3156e8aacccc}, !- Outside Boundary Condition Object
  NoSun,                                  !- Sun Exposure
  NoWind,                                 !- Wind Exposure
  ,                                       !- View Factor to Ground
  ,                                       !- Number of Vertices
  3, 8.18033988749895, 4,                 !- X,Y,Z Vertex 1 {m}
  3, 8.18033988749895, 0,                 !- X,Y,Z Vertex 2 {m}
  0, 11.1803398874989, 0,                 !- X,Y,Z Vertex 3 {m}
  0, 11.1803398874989, 4;                 !- X,Y,Z Vertex 4 {m}

OS:Surface,
  {bff1a327-7089-4731-9a02-0256f32ba834}, !- Handle
  Surface 4,                              !- Name
  Wall,                                   !- Surface Type
  ,                                       !- Construction Name
  {39e4eb0f-5c52-43a8-ad61-80f9cc632338}, !- Space Name
  Surface,                                !- Outside Boundary Condition
  {58ec46c3-bdd8-4f29-b63f-e2f0af86ce11}, !- Outside Boundary Condition Object
  NoSun,                                  !- Sun Exposure
  NoWind,                                 !- Wind Exposure
  ,                                       !- View Factor to Ground
  ,                                       !- Number of Vertices
  3, 3, 4,                                !- X,Y,Z Vertex 1 {m}
  3, 3, 0,                                !- X,Y,Z Vertex 2 {m}
  3, 8.18033988749895, 0,                 !- X,Y,Z Vertex 3 {m}
  3, 8.18033988749895, 4;                 !- X,Y,Z Vertex 4 {m}

OS:Surface,
  {7f63905a-8679-4a37-9120-68f2c5bd46fb}, !- Handle
  Surface 5,                              !- Name
  Wall,                                   !- Surface Type
  ,                                       !- Construction Name
  {39e4eb0f-5c52-43a8-ad61-80f9cc632338}, !- Space Name
  Surface,                                !- Outside Boundary Condition
  {e3edebb0-20fa-4475-b96e-98f4c66c860f}, !- Outside Boundary Condition Object
  NoSun,                                  !- Sun Exposure
  NoWind,                                 !- Wind Exposure
  ,                                       !- View Factor to Ground
  ,                                       !- Number of Vertices
  0, 0, 4,                                !- X,Y,Z Vertex 1 {m}
  0, 0, 0,                                !- X,Y,Z Vertex 2 {m}
  3, 3, 0,                                !- X,Y,Z Vertex 3 {m}
  3, 3, 4;                                !- X,Y,Z Vertex 4 {m}

OS:Surface,
  {69e2909a-eca9-490b-991b-1e84aaa5427c}, !- Handle
  Surface 6,                              !- Name
  RoofCeiling,                            !- Surface Type
  ,                                       !- Construction Name
  {39e4eb0f-5c52-43a8-ad61-80f9cc632338}, !- Space Name
  Surface,                                !- Outside Boundary Condition
  {5babd137-bf0b-42bc-b000-a94b98e7dbf9}, !- Outside Boundary Condition Object
  NoSun,                                  !- Sun Exposure
  NoWind,                                 !- Wind Exposure
  ,                                       !- View Factor to Ground
  ,                                       !- Number of Vertices
  3, 3, 4,                                !- X,Y,Z Vertex 1 {m}
  3, 8.18033988749895, 4,                 !- X,Y,Z Vertex 2 {m}
  0, 11.1803398874989, 4,                 !- X,Y,Z Vertex 3 {m}
  0, 0, 4;                                !- X,Y,Z Vertex 4 {m}

OS:Space,
  {9ae7b92b-1ebb-4a1c-876b-de83ccea2335}, !- Handle
  Story 1 North Perimeter Space,          !- Name
  ,                                       !- Space Type Name
  ,                                       !- Default Construction Set Name
  ,                                       !- Default Schedule Set Name
  -0,                                     !- Direction of Relative North {deg}
  3,                                      !- X Origin {m}
  8.18033988749895,                       !- Y Origin {m}
  0,                                      !- Z Origin {m}
  {9a16e18c-e207-4f46-9052-b6c7f21eaa09}, !- Building Story Name
  {e09423f5-4467-4de9-b317-348f93eca430}; !- Thermal Zone Name

OS:Surface,
  {336c38b0-8906-4bd1-903e-8b8dd7fe1567}, !- Handle
  Surface 7,                              !- Name
  Floor,                                  !- Surface Type
  ,                                       !- Construction Name
  {9ae7b92b-1ebb-4a1c-876b-de83ccea2335}, !- Space Name
  Ground,                                 !- Outside Boundary Condition
  ,                                       !- Outside Boundary Condition Object
  NoSun,                                  !- Sun Exposure
  NoWind,                                 !- Wind Exposure
  ,                                       !- View Factor to Ground
  ,                                       !- Number of Vertices
  -3, 2.99999999999995, 0,                !- X,Y,Z Vertex 1 {m}
  8.1803398874989, 2.99999999999995, 0,   !- X,Y,Z Vertex 2 {m}
  5.18033988749895, 1.77635683940025e-15, 0, !- X,Y,Z Vertex 3 {m}
  0, 1.77635683940025e-15, 0;             !- X,Y,Z Vertex 4 {m}

OS:Surface,
  {ab9dee99-92c0-4ece-ad7c-e7307dbf3315}, !- Handle
  Surface 8,                              !- Name
  Wall,                                   !- Surface Type
  ,                                       !- Construction Name
  {9ae7b92b-1ebb-4a1c-876b-de83ccea2335}, !- Space Name
  Outdoors,                               !- Outside Boundary Condition
  ,                                       !- Outside Boundary Condition Object
  SunExposed,                             !- Sun Exposure
  WindExposed,                            !- Wind Exposure
  ,                                       !- View Factor to Ground
  ,                                       !- Number of Vertices
  8.1803398874989, 2.99999999999995, 4,   !- X,Y,Z Vertex 1 {m}
  8.1803398874989, 2.99999999999995, 0,   !- X,Y,Z Vertex 2 {m}
  -3, 2.99999999999995, 0,                !- X,Y,Z Vertex 3 {m}
  -3, 2.99999999999995, 4;                !- X,Y,Z Vertex 4 {m}

OS:Surface,
  {3a338b4b-f8cb-4fc8-b6b0-b76a3bdf4d2d}, !- Handle
  Surface 9,                              !- Name
  Wall,                                   !- Surface Type
  ,                                       !- Construction Name
  {9ae7b92b-1ebb-4a1c-876b-de83ccea2335}, !- Space Name
  Surface,                                !- Outside Boundary Condition
  {0cd6944e-6e82-40c1-969a-a50789fcf0ab}, !- Outside Boundary Condition Object
  NoSun,                                  !- Sun Exposure
  NoWind,                                 !- Wind Exposure
  ,                                       !- View Factor to Ground
  ,                                       !- Number of Vertices
  5.18033988749895, 1.77635683940025e-15, 4, !- X,Y,Z Vertex 1 {m}
  5.18033988749895, 1.77635683940025e-15, 0, !- X,Y,Z Vertex 2 {m}
  8.1803398874989, 2.99999999999995, 0,   !- X,Y,Z Vertex 3 {m}
  8.1803398874989, 2.99999999999995, 4;   !- X,Y,Z Vertex 4 {m}

OS:Surface,
  {47272899-12fe-458e-84d5-83c9e3c0c254}, !- Handle
  Surface 10,                             !- Name
  Wall,                                   !- Surface Type
  ,                                       !- Construction Name
  {9ae7b92b-1ebb-4a1c-876b-de83ccea2335}, !- Space Name
  Surface,                                !- Outside Boundary Condition
  {a792ca0c-afa9-4a62-b489-1fe8637aecaa}, !- Outside Boundary Condition Object
  NoSun,                                  !- Sun Exposure
  NoWind,                                 !- Wind Exposure
  ,                                       !- View Factor to Ground
  ,                                       !- Number of Vertices
  0, 1.77635683940025e-15, 4,             !- X,Y,Z Vertex 1 {m}
  0, 1.77635683940025e-15, 0,             !- X,Y,Z Vertex 2 {m}
  5.18033988749895, 1.77635683940025e-15, 0, !- X,Y,Z Vertex 3 {m}
  5.18033988749895, 1.77635683940025e-15, 4; !- X,Y,Z Vertex 4 {m}

OS:Surface,
  {80c9f078-2b72-4052-9799-3156e8aacccc}, !- Handle
  Surface 11,                             !- Name
  Wall,                                   !- Surface Type
  ,                                       !- Construction Name
  {9ae7b92b-1ebb-4a1c-876b-de83ccea2335}, !- Space Name
  Surface,                                !- Outside Boundary Condition
  {2dc4f368-515f-4c56-a627-00b0f26e7ec2}, !- Outside Boundary Condition Object
  NoSun,                                  !- Sun Exposure
  NoWind,                                 !- Wind Exposure
  ,                                       !- View Factor to Ground
  ,                                       !- Number of Vertices
  -3, 2.99999999999995, 4,                !- X,Y,Z Vertex 1 {m}
  -3, 2.99999999999995, 0,                !- X,Y,Z Vertex 2 {m}
  0, 1.77635683940025e-15, 0,             !- X,Y,Z Vertex 3 {m}
  0, 1.77635683940025e-15, 4;             !- X,Y,Z Vertex 4 {m}

OS:Surface,
  {318071de-e766-4307-bc4f-8f25ec5f97b0}, !- Handle
  Surface 12,                             !- Name
  RoofCeiling,                            !- Surface Type
  ,                                       !- Construction Name
  {9ae7b92b-1ebb-4a1c-876b-de83ccea2335}, !- Space Name
  Surface,                                !- Outside Boundary Condition
  {427d0388-c6c5-4eb0-bac5-43a70cbdaa6b}, !- Outside Boundary Condition Object
  NoSun,                                  !- Sun Exposure
  NoWind,                                 !- Wind Exposure
  ,                                       !- View Factor to Ground
  ,                                       !- Number of Vertices
  0, 1.77635683940025e-15, 4,             !- X,Y,Z Vertex 1 {m}
  5.18033988749895, 1.77635683940025e-15, 4, !- X,Y,Z Vertex 2 {m}
  8.1803398874989, 2.99999999999995, 4,   !- X,Y,Z Vertex 3 {m}
  -3, 2.99999999999995, 4;                !- X,Y,Z Vertex 4 {m}

OS:Space,
  {1f53ef9d-1160-45df-bbb2-2521098880e8}, !- Handle
  Story 1 East Perimeter Space,           !- Name
  ,                                       !- Space Type Name
  ,                                       !- Default Construction Set Name
  ,                                       !- Default Schedule Set Name
  -0,                                     !- Direction of Relative North {deg}
  8.18033988749895,                       !- X Origin {m}
  3,                                      !- Y Origin {m}
  0,                                      !- Z Origin {m}
  {9a16e18c-e207-4f46-9052-b6c7f21eaa09}, !- Building Story Name
  {8f3608c4-c7ff-4831-9d99-7fcdcf67c8c2}; !- Thermal Zone Name

OS:Surface,
  {d82bb821-a382-491b-af6b-1dd420dbb293}, !- Handle
  Surface 13,                             !- Name
  Floor,                                  !- Surface Type
  ,                                       !- Construction Name
  {1f53ef9d-1160-45df-bbb2-2521098880e8}, !- Space Name
  Ground,                                 !- Outside Boundary Condition
  ,                                       !- Outside Boundary Condition Object
  NoSun,                                  !- Sun Exposure
  NoWind,                                 !- Wind Exposure
  ,                                       !- View Factor to Ground
  ,                                       !- Number of Vertices
  2.99999999999995, 8.1803398874989, 0,   !- X,Y,Z Vertex 1 {m}
  2.99999999999995, -3, 0,                !- X,Y,Z Vertex 2 {m}
  1.77635683940025e-15, 0, 0,             !- X,Y,Z Vertex 3 {m}
  1.77635683940025e-15, 5.18033988749895, 0; !- X,Y,Z Vertex 4 {m}

OS:Surface,
  {832bd087-1cf0-43eb-bbd1-a780ccac2a8c}, !- Handle
  Surface 14,                             !- Name
  Wall,                                   !- Surface Type
  ,                                       !- Construction Name
  {1f53ef9d-1160-45df-bbb2-2521098880e8}, !- Space Name
  Outdoors,                               !- Outside Boundary Condition
  ,                                       !- Outside Boundary Condition Object
  SunExposed,                             !- Sun Exposure
  WindExposed,                            !- Wind Exposure
  ,                                       !- View Factor to Ground
  ,                                       !- Number of Vertices
  2.99999999999995, -3, 4,                !- X,Y,Z Vertex 1 {m}
  2.99999999999995, -3, 0,                !- X,Y,Z Vertex 2 {m}
  2.99999999999995, 8.1803398874989, 0,   !- X,Y,Z Vertex 3 {m}
  2.99999999999995, 8.1803398874989, 4;   !- X,Y,Z Vertex 4 {m}

OS:Surface,
  {5b3c6b55-8340-404f-a836-100be6871f0a}, !- Handle
  Surface 15,                             !- Name
  Wall,                                   !- Surface Type
  ,                                       !- Construction Name
  {1f53ef9d-1160-45df-bbb2-2521098880e8}, !- Space Name
  Surface,                                !- Outside Boundary Condition
  {aff8a804-c0ea-45bf-96d4-dc05f6fc8182}, !- Outside Boundary Condition Object
  NoSun,                                  !- Sun Exposure
  NoWind,                                 !- Wind Exposure
  ,                                       !- View Factor to Ground
  ,                                       !- Number of Vertices
  1.77635683940025e-15, 0, 4,             !- X,Y,Z Vertex 1 {m}
  1.77635683940025e-15, 0, 0,             !- X,Y,Z Vertex 2 {m}
  2.99999999999995, -3, 0,                !- X,Y,Z Vertex 3 {m}
  2.99999999999995, -3, 4;                !- X,Y,Z Vertex 4 {m}

OS:Surface,
  {7fc3b4e0-3ad3-4890-94ea-f8820e52ebd4}, !- Handle
  Surface 16,                             !- Name
  Wall,                                   !- Surface Type
  ,                                       !- Construction Name
  {1f53ef9d-1160-45df-bbb2-2521098880e8}, !- Space Name
  Surface,                                !- Outside Boundary Condition
  {fba6ec39-5232-4bd1-a1d3-7839ede5dfac}, !- Outside Boundary Condition Object
  NoSun,                                  !- Sun Exposure
  NoWind,                                 !- Wind Exposure
  ,                                       !- View Factor to Ground
  ,                                       !- Number of Vertices
  1.77635683940025e-15, 5.18033988749895, 4, !- X,Y,Z Vertex 1 {m}
  1.77635683940025e-15, 5.18033988749895, 0, !- X,Y,Z Vertex 2 {m}
  1.77635683940025e-15, 0, 0,             !- X,Y,Z Vertex 3 {m}
  1.77635683940025e-15, 0, 4;             !- X,Y,Z Vertex 4 {m}

OS:Surface,
  {0cd6944e-6e82-40c1-969a-a50789fcf0ab}, !- Handle
  Surface 17,                             !- Name
  Wall,                                   !- Surface Type
  ,                                       !- Construction Name
  {1f53ef9d-1160-45df-bbb2-2521098880e8}, !- Space Name
  Surface,                                !- Outside Boundary Condition
  {3a338b4b-f8cb-4fc8-b6b0-b76a3bdf4d2d}, !- Outside Boundary Condition Object
  NoSun,                                  !- Sun Exposure
  NoWind,                                 !- Wind Exposure
  ,                                       !- View Factor to Ground
  ,                                       !- Number of Vertices
  2.99999999999995, 8.1803398874989, 4,   !- X,Y,Z Vertex 1 {m}
  2.99999999999995, 8.1803398874989, 0,   !- X,Y,Z Vertex 2 {m}
  1.77635683940025e-15, 5.18033988749895, 0, !- X,Y,Z Vertex 3 {m}
  1.77635683940025e-15, 5.18033988749895, 4; !- X,Y,Z Vertex 4 {m}

OS:Surface,
  {4b2de408-1bac-4dd7-af34-0eb54dea160a}, !- Handle
  Surface 18,                             !- Name
  RoofCeiling,                            !- Surface Type
  ,                                       !- Construction Name
  {1f53ef9d-1160-45df-bbb2-2521098880e8}, !- Space Name
  Surface,                                !- Outside Boundary Condition
  {71dbc7db-7d5e-4ddd-8511-3a65412a0454}, !- Outside Boundary Condition Object
  NoSun,                                  !- Sun Exposure
  NoWind,                                 !- Wind Exposure
  ,                                       !- View Factor to Ground
  ,                                       !- Number of Vertices
  1.77635683940025e-15, 5.18033988749895, 4, !- X,Y,Z Vertex 1 {m}
  1.77635683940025e-15, 0, 4,             !- X,Y,Z Vertex 2 {m}
  2.99999999999995, -3, 4,                !- X,Y,Z Vertex 3 {m}
  2.99999999999995, 8.1803398874989, 4;   !- X,Y,Z Vertex 4 {m}

OS:Space,
  {625801e5-c552-47e0-9c7e-37e4247e04a4}, !- Handle
  Story 1 South Perimeter Space,          !- Name
  ,                                       !- Space Type Name
  ,                                       !- Default Construction Set Name
  ,                                       !- Default Schedule Set Name
  -0,                                     !- Direction of Relative North {deg}
  0,                                      !- X Origin {m}
  0,                                      !- Y Origin {m}
  0,                                      !- Z Origin {m}
  {9a16e18c-e207-4f46-9052-b6c7f21eaa09}, !- Building Story Name
  {47fa8a17-3cf6-44b5-a400-732341a16169}; !- Thermal Zone Name

OS:Surface,
  {8e9ad909-2bb0-4b40-9abe-d368e426efee}, !- Handle
  Surface 19,                             !- Name
  Floor,                                  !- Surface Type
  ,                                       !- Construction Name
  {625801e5-c552-47e0-9c7e-37e4247e04a4}, !- Space Name
  Ground,                                 !- Outside Boundary Condition
  ,                                       !- Outside Boundary Condition Object
  NoSun,                                  !- Sun Exposure
  NoWind,                                 !- Wind Exposure
  ,                                       !- View Factor to Ground
  ,                                       !- Number of Vertices
  11.1803398874989, 0, 0,                 !- X,Y,Z Vertex 1 {m}
  0, 0, 0,                                !- X,Y,Z Vertex 2 {m}
  3, 3, 0,                                !- X,Y,Z Vertex 3 {m}
  8.18033988749895, 3, 0;                 !- X,Y,Z Vertex 4 {m}

OS:Surface,
  {b3cee751-9aee-490c-9a15-400944425d80}, !- Handle
  Surface 20,                             !- Name
  Wall,                                   !- Surface Type
  ,                                       !- Construction Name
  {625801e5-c552-47e0-9c7e-37e4247e04a4}, !- Space Name
  Outdoors,                               !- Outside Boundary Condition
  ,                                       !- Outside Boundary Condition Object
  SunExposed,                             !- Sun Exposure
  WindExposed,                            !- Wind Exposure
  ,                                       !- View Factor to Ground
  ,                                       !- Number of Vertices
  0, 0, 4,                                !- X,Y,Z Vertex 1 {m}
  0, 0, 0,                                !- X,Y,Z Vertex 2 {m}
  11.1803398874989, 0, 0,                 !- X,Y,Z Vertex 3 {m}
  11.1803398874989, 0, 4;                 !- X,Y,Z Vertex 4 {m}

OS:Surface,
  {e3edebb0-20fa-4475-b96e-98f4c66c860f}, !- Handle
  Surface 21,                             !- Name
  Wall,                                   !- Surface Type
  ,                                       !- Construction Name
  {625801e5-c552-47e0-9c7e-37e4247e04a4}, !- Space Name
  Surface,                                !- Outside Boundary Condition
  {7f63905a-8679-4a37-9120-68f2c5bd46fb}, !- Outside Boundary Condition Object
  NoSun,                                  !- Sun Exposure
  NoWind,                                 !- Wind Exposure
  ,                                       !- View Factor to Ground
  ,                                       !- Number of Vertices
  3, 3, 4,                                !- X,Y,Z Vertex 1 {m}
  3, 3, 0,                                !- X,Y,Z Vertex 2 {m}
  0, 0, 0,                                !- X,Y,Z Vertex 3 {m}
  0, 0, 4;                                !- X,Y,Z Vertex 4 {m}

OS:Surface,
  {57a52593-09b2-48f2-8fb7-a400cb5262c6}, !- Handle
  Surface 22,                             !- Name
  Wall,                                   !- Surface Type
  ,                                       !- Construction Name
  {625801e5-c552-47e0-9c7e-37e4247e04a4}, !- Space Name
  Surface,                                !- Outside Boundary Condition
  {51dab6b9-7e5a-4989-b9ac-59f2d014af3c}, !- Outside Boundary Condition Object
  NoSun,                                  !- Sun Exposure
  NoWind,                                 !- Wind Exposure
  ,                                       !- View Factor to Ground
  ,                                       !- Number of Vertices
  8.18033988749895, 3, 4,                 !- X,Y,Z Vertex 1 {m}
  8.18033988749895, 3, 0,                 !- X,Y,Z Vertex 2 {m}
  3, 3, 0,                                !- X,Y,Z Vertex 3 {m}
  3, 3, 4;                                !- X,Y,Z Vertex 4 {m}

OS:Surface,
  {aff8a804-c0ea-45bf-96d4-dc05f6fc8182}, !- Handle
  Surface 23,                             !- Name
  Wall,                                   !- Surface Type
  ,                                       !- Construction Name
  {625801e5-c552-47e0-9c7e-37e4247e04a4}, !- Space Name
  Surface,                                !- Outside Boundary Condition
  {5b3c6b55-8340-404f-a836-100be6871f0a}, !- Outside Boundary Condition Object
  NoSun,                                  !- Sun Exposure
  NoWind,                                 !- Wind Exposure
  ,                                       !- View Factor to Ground
  ,                                       !- Number of Vertices
  11.1803398874989, 0, 4,                 !- X,Y,Z Vertex 1 {m}
  11.1803398874989, 0, 0,                 !- X,Y,Z Vertex 2 {m}
  8.18033988749895, 3, 0,                 !- X,Y,Z Vertex 3 {m}
  8.18033988749895, 3, 4;                 !- X,Y,Z Vertex 4 {m}

OS:Surface,
  {de4f8976-7f48-4230-bdce-621973abb770}, !- Handle
  Surface 24,                             !- Name
  RoofCeiling,                            !- Surface Type
  ,                                       !- Construction Name
  {625801e5-c552-47e0-9c7e-37e4247e04a4}, !- Space Name
  Surface,                                !- Outside Boundary Condition
  {c9a72951-e96c-400a-b60a-026f20a8268f}, !- Outside Boundary Condition Object
  NoSun,                                  !- Sun Exposure
  NoWind,                                 !- Wind Exposure
  ,                                       !- View Factor to Ground
  ,                                       !- Number of Vertices
  8.18033988749895, 3, 4,                 !- X,Y,Z Vertex 1 {m}
  3, 3, 4,                                !- X,Y,Z Vertex 2 {m}
  0, 0, 4,                                !- X,Y,Z Vertex 3 {m}
  11.1803398874989, 0, 4;                 !- X,Y,Z Vertex 4 {m}

OS:Space,
  {a01c904f-d025-449b-80d0-2fa28aea44ce}, !- Handle
  Story 1 Core Space,                     !- Name
  ,                                       !- Space Type Name
  ,                                       !- Default Construction Set Name
  ,                                       !- Default Schedule Set Name
  -0,                                     !- Direction of Relative North {deg}
  3,                                      !- X Origin {m}
  3,                                      !- Y Origin {m}
  0,                                      !- Z Origin {m}
  {9a16e18c-e207-4f46-9052-b6c7f21eaa09}, !- Building Story Name
  {e8dda55c-5b64-4f1d-9eab-4a1dbdb5c6b6}; !- Thermal Zone Name

OS:Surface,
  {4b3e8c1a-3312-46a3-a31b-96322c10c74c}, !- Handle
  Surface 25,                             !- Name
  Floor,                                  !- Surface Type
  ,                                       !- Construction Name
  {a01c904f-d025-449b-80d0-2fa28aea44ce}, !- Space Name
  Ground,                                 !- Outside Boundary Condition
  ,                                       !- Outside Boundary Condition Object
  NoSun,                                  !- Sun Exposure
  NoWind,                                 !- Wind Exposure
  ,                                       !- View Factor to Ground
  ,                                       !- Number of Vertices
  0, 0, 0,                                !- X,Y,Z Vertex 1 {m}
  0, 5.18033988749895, 0,                 !- X,Y,Z Vertex 2 {m}
  5.18033988749895, 5.18033988749895, 0,  !- X,Y,Z Vertex 3 {m}
  5.18033988749895, 0, 0;                 !- X,Y,Z Vertex 4 {m}

OS:Surface,
  {58ec46c3-bdd8-4f29-b63f-e2f0af86ce11}, !- Handle
  Surface 26,                             !- Name
  Wall,                                   !- Surface Type
  ,                                       !- Construction Name
  {a01c904f-d025-449b-80d0-2fa28aea44ce}, !- Space Name
  Surface,                                !- Outside Boundary Condition
  {bff1a327-7089-4731-9a02-0256f32ba834}, !- Outside Boundary Condition Object
  NoSun,                                  !- Sun Exposure
  NoWind,                                 !- Wind Exposure
  ,                                       !- View Factor to Ground
  ,                                       !- Number of Vertices
  0, 5.18033988749895, 4,                 !- X,Y,Z Vertex 1 {m}
  0, 5.18033988749895, 0,                 !- X,Y,Z Vertex 2 {m}
  0, 0, 0,                                !- X,Y,Z Vertex 3 {m}
  0, 0, 4;                                !- X,Y,Z Vertex 4 {m}

OS:Surface,
  {a792ca0c-afa9-4a62-b489-1fe8637aecaa}, !- Handle
  Surface 27,                             !- Name
  Wall,                                   !- Surface Type
  ,                                       !- Construction Name
  {a01c904f-d025-449b-80d0-2fa28aea44ce}, !- Space Name
  Surface,                                !- Outside Boundary Condition
  {47272899-12fe-458e-84d5-83c9e3c0c254}, !- Outside Boundary Condition Object
  NoSun,                                  !- Sun Exposure
  NoWind,                                 !- Wind Exposure
  ,                                       !- View Factor to Ground
  ,                                       !- Number of Vertices
  5.18033988749895, 5.18033988749895, 4,  !- X,Y,Z Vertex 1 {m}
  5.18033988749895, 5.18033988749895, 0,  !- X,Y,Z Vertex 2 {m}
  0, 5.18033988749895, 0,                 !- X,Y,Z Vertex 3 {m}
  0, 5.18033988749895, 4;                 !- X,Y,Z Vertex 4 {m}

OS:Surface,
  {fba6ec39-5232-4bd1-a1d3-7839ede5dfac}, !- Handle
  Surface 28,                             !- Name
  Wall,                                   !- Surface Type
  ,                                       !- Construction Name