
OS:Version,
  {f9a5a573-6d51-4574-afb1-7f03e6116e53}, !- Handle
  0.10.0;                                 !- Version Identifier

OS:BuildingStory,
  {a17b454b-5ff8-4a47-bd3e-8549e410ba2a}, !- Handle
  Story 1,                                !- Name
  0,                                      !- Nominal Z Coordinate {m}
  4,                                      !- Nominal Floor to Floor Height {m}
  ,                                       !- Default Construction Set Name
  ,                                       !- Default Schedule Set Name
  ;                                       !- Group Rendering Name

OS:Space,
  {0a56915c-ceef-4e47-b5eb-b90378a7089b}, !- Handle
  Story 1 West Perimeter Space,           !- Name
  ,                                       !- Space Type Name
  ,                                       !- Default Construction Set Name
  ,                                       !- Default Schedule Set Name
  -0,                                     !- Direction of Relative North {deg}
  0,                                      !- X Origin {m}
  0,                                      !- Y Origin {m}
  0,                                      !- Z Origin {m}
  {a17b454b-5ff8-4a47-bd3e-8549e410ba2a}, !- Building Story Name
  {df879c99-3dac-4c94-a173-46186cae0876}; !- Thermal Zone Name

OS:Surface,
  {b4a63299-3b8f-4ed7-a9ff-cc247f629fcf}, !- Handle
  Surface 1,                              !- Name
  Floor,                                  !- Surface Type
  ,                                       !- Construction Name
  {0a56915c-ceef-4e47-b5eb-b90378a7089b}, !- Space Name
  Ground,                                 !- Outside Boundary Condition
  ,                                       !- Outside Boundary Condition Object
  NoSun,                                  !- Sun Exposure
  NoWind,                                 !- Wind Exposure
  ,                                       !- View Factor to Ground
  ,                                       !- Number of Vertices
  0, 0, 0,                                !- X,Y,Z Vertex 1 {m}
  0, 28.2807354925575, 0,                 !- X,Y,Z Vertex 2 {m}
  3, 25.2807354925575, 0,                 !- X,Y,Z Vertex 3 {m}
  3, 3, 0;                                !- X,Y,Z Vertex 4 {m}

OS:Surface,
  {80f7deb1-7240-4f7e-8a0d-7bb09f980e47}, !- Handle
  Surface 2,                              !- Name
  Wall,                                   !- Surface Type
  ,                                       !- Construction Name
  {0a56915c-ceef-4e47-b5eb-b90378a7089b}, !- Space Name
  Outdoors,                               !- Outside Boundary Condition
  ,                                       !- Outside Boundary Condition Object
  SunExposed,                             !- Sun Exposure
  WindExposed,                            !- Wind Exposure
  ,                                       !- View Factor to Ground
  ,                                       !- Number of Vertices
  0, 28.2807354925575, 4,                 !- X,Y,Z Vertex 1 {m}
  0, 28.2807354925575, 0,                 !- X,Y,Z Vertex 2 {m}
  0, 0, 0,                                !- X,Y,Z Vertex 3 {m}
  0, 0, 4;                                !- X,Y,Z Vertex 4 {m}

OS:Surface,
  {968cb2f7-93b8-4482-bd5a-11986cd95edc}, !- Handle
  Surface 3,                              !- Name
  Wall,                                   !- Surface Type
  ,                                       !- Construction Name
  {0a56915c-ceef-4e47-b5eb-b90378a7089b}, !- Space Name
  Surface,                                !- Outside Boundary Condition
  {27188832-3f07-42ff-84d9-4d3a60a16476}, !- Outside Boundary Condition Object
  NoSun,                                  !- Sun Exposure
  NoWind,                                 !- Wind Exposure
  ,                                       !- View Factor to Ground
  ,                                       !- Number of Vertices
  3, 25.2807354925575, 4,                 !- X,Y,Z Vertex 1 {m}
  3, 25.2807354925575, 0,                 !- X,Y,Z Vertex 2 {m}
  0, 28.2807354925575, 0,                 !- X,Y,Z Vertex 3 {m}
  0, 28.2807354925575, 4;                 !- X,Y,Z Vertex 4 {m}

OS:Surface,
  {02f77fff-05ad-4d52-b7c7-feee7b7c9661}, !- Handle
  Surface 4,                              !- Name
  Wall,                                   !- Surface Type
  ,                                       !- Construction Name
  {0a56915c-ceef-4e47-b5eb-b90378a7089b}, !- Space Name
  Surface,                                !- Outside Boundary Condition
  {e3c5b719-e2f3-4e93-bb9c-825514edc93d}, !- Outside Boundary Condition Object
  NoSun,                                  !- Sun Exposure
  NoWind,                                 !- Wind Exposure
  ,                                       !- View Factor to Ground
  ,                                       !- Number of Vertices
  3, 3, 4,                                !- X,Y,Z Vertex 1 {m}
  3, 3, 0,                                !- X,Y,Z Vertex 2 {m}
  3, 25.2807354925575, 0,                 !- X,Y,Z Vertex 3 {m}
  3, 25.2807354925575, 4;                 !- X,Y,Z Vertex 4 {m}

OS:Surface,
  {3aa229dc-9ee8-4c4f-b29c-f5984fe1b786}, !- Handle
  Surface 5,                              !- Name
  Wall,                                   !- Surface Type
  ,                                       !- Construction Name
  {0a56915c-ceef-4e47-b5eb-b90378a7089b}, !- Space Name
  Surface,                                !- Outside Boundary Condition
  {b1ac9b15-d6e0-423d-ace4-f5071e3e8dbd}, !- Outside Boundary Condition Object
  NoSun,                                  !- Sun Exposure
  NoWind,                                 !- Wind Exposure
  ,                                       !- View Factor to Ground
  ,                                       !- Number of Vertices
  0, 0, 4,                                !- X,Y,Z Vertex 1 {m}
  0, 0, 0,                                !- X,Y,Z Vertex 2 {m}
  3, 3, 0,                                !- X,Y,Z Vertex 3 {m}
  3, 3, 4;                                !- X,Y,Z Vertex 4 {m}

OS:Surface,
  {94a8ba45-c0bc-4fc2-bc72-f4907937d9cd}, !- Handle
  Surface 6,                              !- Name
  RoofCeiling,                            !- Surface Type
  ,                                       !- Construction Name
  {0a56915c-ceef-4e47-b5eb-b90378a7089b}, !- Space Name
  Surface,                                !- Outside Boundary Condition
  {5b0f7f92-246d-4cd8-93ca-31f8a88ab161}, !- Outside Boundary Condition Object
  NoSun,                                  !- Sun Exposure
  NoWind,                                 !- Wind Exposure
  ,                                       !- View Factor to Ground
  ,                                       !- Number of Vertices
  3, 3, 4,                                !- X,Y,Z Vertex 1 {m}
  3, 25.2807354925575, 4,                 !- X,Y,Z Vertex 2 {m}
  0, 28.2807354925575, 4,                 !- X,Y,Z Vertex 3 {m}
  0, 0, 4;                                !- X,Y,Z Vertex 4 {m}

OS:Space,
  {df491737-3c17-4bf5-aa44-2dd2f57161d7}, !- Handle
  Story 1 North Perimeter Space,          !- Name
  ,                                       !- Space Type Name
  ,                                       !- Default Construction Set Name
  ,                                       !- Default Schedule Set Name
  -0,                                     !- Direction of Relative North {deg}
  3,                                      !- X Origin {m}
  25.2807354925575,                       !- Y Origin {m}
  0,                                      !- Z Origin {m}
  {a17b454b-5ff8-4a47-bd3e-8549e410ba2a}, !- Building Story Name
  {4f2339c8-9b5e-49c0-b48e-fc44a945de46}; !- Thermal Zone Name

OS:Surface,
  {3f0b2e97-db66-41d8-9a6f-4ce2d59150ec}, !- Handle
  Surface 7,                              !- Name
  Floor,                                  !- Surface Type
  ,                                       !- Construction Name
  {df491737-3c17-4bf5-aa44-2dd2f57161d7}, !- Space Name
  Ground,                                 !- Outside Boundary Condition
  ,                                       !- Outside Boundary Condition Object
  NoSun,                                  !- Sun Exposure
  NoWind,                                 !- Wind Exposure
  ,                                       !- View Factor to Ground
  ,                                       !- Number of Vertices
  -3, 3.00000000000003, 0,                !- X,Y,Z Vertex 1 {m}
  25.2807354925575, 3.00000000000003, 0,  !- X,Y,Z Vertex 2 {m}
  22.2807354925575, 2.8421709430404e-14, 0, !- X,Y,Z Vertex 3 {m}
  0, 2.8421709430404e-14, 0;              !- X,Y,Z Vertex 4 {m}

OS:Surface,
  {9669a38a-96b4-499b-a2c9-850a7e07f0f1}, !- Handle
  Surface 8,                              !- Name
  Wall,                                   !- Surface Type
  ,                                       !- Construction Name
  {df491737-3c17-4bf5-aa44-2dd2f57161d7}, !- Space Name
  Outdoors,                               !- Outside Boundary Condition
  ,                                       !- Outside Boundary Condition Object
  SunExposed,                             !- Sun Exposure
  WindExposed,                            !- Wind Exposure
  ,                                       !- View Factor to Ground
  ,                                       !- Number of Vertices
  25.2807354925575, 3.00000000000003, 4,  !- X,Y,Z Vertex 1 {m}
  25.2807354925575, 3.00000000000003, 0,  !- X,Y,Z Vertex 2 {m}
  -3, 3.00000000000003, 0,                !- X,Y,Z Vertex 3 {m}
  -3, 3.00000000000003, 4;                !- X,Y,Z Vertex 4 {m}

OS:Surface,
  {c6269f3b-5d3b-476e-87ac-afb37f47db8e}, !- Handle
  Surface 9,                              !- Name
  Wall,                                   !- Surface Type
  ,                                       !- Construction Name
  {df491737-3c17-4bf5-aa44-2dd2f57161d7}, !- Space Name
  Surface,                                !- Outside Boundary Condition
  {38e2888c-78ec-4fba-8c5f-49f9073b3e82}, !- Outside Boundary Condition Object
  NoSun,                                  !- Sun Exposure
  NoWind,                                 !- Wind Exposure
  ,                                       !- View Factor to Ground
  ,                                       !- Number of Vertices
  22.2807354925575, 2.8421709430404e-14, 4, !- X,Y,Z Vertex 1 {m}
  22.2807354925575, 2.8421709430404e-14, 0, !- X,Y,Z Vertex 2 {m}
  25.2807354925575, 3.00000000000003, 0,  !- X,Y,Z Vertex 3 {m}
  25.2807354925575, 3.00000000000003, 4;  !- X,Y,Z Vertex 4 {m}

OS:Surface,
  {450a534e-e45f-464a-bb86-12f05ebd7853}, !- Handle
  Surface 10,                             !- Name
  Wall,                                   !- Surface Type
  ,                                       !- Construction Name
  {df491737-3c17-4bf5-aa44-2dd2f57161d7}, !- Space Name
  Surface,                                !- Outside Boundary Condition
  {8a8eb3e5-9d95-4bc0-b055-9c6e6e3b7612}, !- Outside Boundary Condition Object
  NoSun,                                  !- Sun Exposure
  NoWind,                                 !- Wind Exposure
  ,                                       !- View Factor to Ground
  ,                                       !- Number of Vertices
  0, 2.8421709430404e-14, 4,              !- X,Y,Z Vertex 1 {m}
  0, 2.8421709430404e-14, 0,              !- X,Y,Z Vertex 2 {m}
  22.2807354925575, 2.8421709430404e-14, 0, !- X,Y,Z Vertex 3 {m}
  22.2807354925575, 2.8421709430404e-14, 4; !- X,Y,Z Vertex 4 {m}

OS:Surface,
  {27188832-3f07-42ff-84d9-4d3a60a16476}, !- Handle
  Surface 11,                             !- Name
  Wall,                                   !- Surface Type
  ,                                       !- Construction Name
  {df491737-3c17-4bf5-aa44-2dd2f57161d7}, !- Space Name
  Surface,                                !- Outside Boundary Condition
  {968cb2f7-93b8-4482-bd5a-11986cd95edc}, !- Outside Boundary Condition Object
  NoSun,                                  !- Sun Exposure
  NoWind,                                 !- Wind Exposure
  ,                                       !- View Factor to Ground
  ,                                       !- Number of Vertices
  -3, 3.00000000000003, 4,                !- X,Y,Z Vertex 1 {m}
  -3, 3.00000000000003, 0,                !- X,Y,Z Vertex 2 {m}
  0, 2.8421709430404e-14, 0,              !- X,Y,Z Vertex 3 {m}
  0, 2.8421709430404e-14, 4;              !- X,Y,Z Vertex 4 {m}

OS:Surface,
  {1e911fc3-27ca-438c-8a79-1803ad3a209b}, !- Handle
  Surface 12,                             !- Name
  RoofCeiling,                            !- Surface Type
  ,                                       !- Construction Name
  {df491737-3c17-4bf5-aa44-2dd2f57161d7}, !- Space Name
  Surface,                                !- Outside Boundary Condition
  {d09f6349-8568-4c5f-bf29-16fa7022e063}, !- Outside Boundary Condition Object
  NoSun,                                  !- Sun Exposure
  NoWind,                                 !- Wind Exposure
  ,                                       !- View Factor to Ground
  ,                                       !- Number of Vertices
  0, 2.8421709430404e-14, 4,              !- X,Y,Z Vertex 1 {m}
  22.2807354925575, 2.8421709430404e-14, 4, !- X,Y,Z Vertex 2 {m}
  25.2807354925575, 3.00000000000003, 4,  !- X,Y,Z Vertex 3 {m}
  -3, 3.00000000000003, 4;                !- X,Y,Z Vertex 4 {m}

OS:Space,
  {27888d4a-660b-4b20-a27c-d896eb2b4b88}, !- Handle
  Story 1 East Perimeter Space,           !- Name
  ,                                       !- Space Type Name
  ,                                       !- Default Construction Set Name
  ,                                       !- Default Schedule Set Name
  -0,                                     !- Direction of Relative North {deg}
  25.2807354925575,                       !- X Origin {m}
  3,                                      !- Y Origin {m}
  0,                                      !- Z Origin {m}
  {a17b454b-5ff8-4a47-bd3e-8549e410ba2a}, !- Building Story Name
  {6413b005-0ebc-4869-8bb3-65d022563e09}; !- Thermal Zone Name

OS:Surface,
  {882d6e1f-49bd-426c-aad9-2a1f83af3fc9}, !- Handle
  Surface 13,                             !- Name
  Floor,                                  !- Surface Type
  ,                                       !- Construction Name
  {27888d4a-660b-4b20-a27c-d896eb2b4b88}, !- Space Name
  Ground,                                 !- Outside Boundary Condition
  ,                                       !- Outside Boundary Condition Object
  NoSun,                                  !- Sun Exposure
  NoWind,                                 !- Wind Exposure
  ,                                       !- View Factor to Ground
  ,                                       !- Number of Vertices
  3.00000000000003, 25.2807354925575, 0,  !- X,Y,Z Vertex 1 {m}
  3.00000000000003, -3, 0,                !- X,Y,Z Vertex 2 {m}
  2.8421709430404e-14, 0, 0,              !- X,Y,Z Vertex 3 {m}
  2.8421709430404e-14, 22.2807354925575, 0; !- X,Y,Z Vertex 4 {m}

OS:Surface,
  {b33a76a7-741c-4fe7-a03e-174bd09d9d43}, !- Handle
  Surface 14,                             !- Name
  Wall,                                   !- Surface Type
  ,                                       !- Construction Name
  {27888d4a-660b-4b20-a27c-d896eb2b4b88}, !- Space Name
  Outdoors,                               !- Outside Boundary Condition
  ,                                       !- Outside Boundary Condition Object
  SunExposed,                             !- Sun Exposure
  WindExposed,                            !- Wind Exposure
  ,                                       !- View Factor to Ground
  ,                                       !- Number of Vertices
  3.00000000000003, -3, 4,                !- X,Y,Z Vertex 1 {m}
  3.00000000000003, -3, 0,                !- X,Y,Z Vertex 2 {m}
  3.00000000000003, 25.2807354925575, 0,  !- X,Y,Z Vertex 3 {m}
  3.00000000000003, 25.2807354925575, 4;  !- X,Y,Z Vertex 4 {m}

OS:Surface,
  {63bd4882-a134-4289-b352-4fd23413cbf7}, !- Handle
  Surface 15,                             !- Name
  Wall,                                   !- Surface Type
  ,                                       !- Construction Name
  {27888d4a-660b-4b20-a27c-d896eb2b4b88}, !- Space Name
  Surface,                                !- Outside Boundary Condition
  {1be71020-b886-4d65-a34b-d02cd8869dc7}, !- Outside Boundary Condition Object
  NoSun,                                  !- Sun Exposure
  NoWind,                                 !- Wind Exposure
  ,                                       !- View Factor to Ground
  ,                                       !- Number of Vertices
  2.8421709430404e-14, 0, 4,              !- X,Y,Z Vertex 1 {m}
  2.8421709430404e-14, 0, 0,              !- X,Y,Z Vertex 2 {m}
  3.00000000000003, -3, 0,                !- X,Y,Z Vertex 3 {m}
  3.00000000000003, -3, 4;                !- X,Y,Z Vertex 4 {m}

OS:Surface,
  {4d402d13-8313-4502-88f2-b30b6c704372}, !- Handle
  Surface 16,                             !- Name
  Wall,                                   !- Surface Type
  ,                                       !- Construction Name
  {27888d4a-660b-4b20-a27c-d896eb2b4b88}, !- Space Name
  Surface,                                !- Outside Boundary Condition
  {0a4ef21b-4259-469a-b9b4-03460579d3f6}, !- Outside Boundary Condition Object
  NoSun,                                  !- Sun Exposure
  NoWind,                                 !- Wind Exposure
  ,                                       !- View Factor to Ground
  ,                                       !- Number of Vertices
  2.8421709430404e-14, 22.2807354925575, 4, !- X,Y,Z Vertex 1 {m}
  2.8421709430404e-14, 22.2807354925575, 0, !- X,Y,Z Vertex 2 {m}
  2.8421709430404e-14, 0, 0,              !- X,Y,Z Vertex 3 {m}
  2.8421709430404e-14, 0, 4;              !- X,Y,Z Vertex 4 {m}

OS:Surface,
  {38e2888c-78ec-4fba-8c5f-49f9073b3e82}, !- Handle
  Surface 17,                             !- Name
  Wall,                                   !- Surface Type
  ,                                       !- Construction Name
  {27888d4a-660b-4b20-a27c-d896eb2b4b88}, !- Space Name
  Surface,                                !- Outside Boundary Condition
  {c6269f3b-5d3b-476e-87ac-afb37f47db8e}, !- Outside Boundary Condition Object
  NoSun,                                  !- Sun Exposure
  NoWind,                                 !- Wind Exposure
  ,                                       !- View Factor to Ground
  ,                                       !- Number of Vertices
  3.00000000000003, 25.2807354925575, 4,  !- X,Y,Z Vertex 1 {m}
  3.00000000000003, 25.2807354925575, 0,  !- X,Y,Z Vertex 2 {m}
  2.8421709430404e-14, 22.2807354925575, 0, !- X,Y,Z Vertex 3 {m}
  2.8421709430404e-14, 22.2807354925575, 4; !- X,Y,Z Vertex 4 {m}

OS:Surface,
  {c77d2857-35be-4254-ba1f-01dbd1c72490}, !- Handle
  Surface 18,                             !- Name
  RoofCeiling,                            !- Surface Type
  ,                                       !- Construction Name
  {27888d4a-660b-4b20-a27c-d896eb2b4b88}, !- Space Name
  Surface,                                !- Outside Boundary Condition
  {6ed59bb0-8879-45ef-8420-5035b94819e7}, !- Outside Boundary Condition Object
  NoSun,                                  !- Sun Exposure
  NoWind,                                 !- Wind Exposure
  ,                                       !- View Factor to Ground
  ,                                       !- Number of Vertices
  2.8421709430404e-14, 22.2807354925575, 4, !- X,Y,Z Vertex 1 {m}
  2.8421709430404e-14, 0, 4,              !- X,Y,Z Vertex 2 {m}
  3.00000000000003, -3, 4,                !- X,Y,Z Vertex 3 {m}
  3.00000000000003, 25.2807354925575, 4;  !- X,Y,Z Vertex 4 {m}

OS:Space,
  {de8de9bf-310a-4ee5-a5e4-ae04b8471908}, !- Handle
  Story 1 South Perimeter Space,          !- Name
  ,                                       !- Space Type Name
  ,                                       !- Default Construction Set Name
  ,                                       !- Default Schedule Set Name
  -0,                                     !- Direction of Relative North {deg}
  0,                                      !- X Origin {m}
  0,                                      !- Y Origin {m}
  0,                                      !- Z Origin {m}
  {a17b454b-5ff8-4a47-bd3e-8549e410ba2a}, !- Building Story Name
  {073f76a5-4ae2-4636-ad4e-7ff2f3383240}; !- Thermal Zone Name

OS:Surface,
  {3cd761d7-86cd-4c36-b76a-be930a35c95a}, !- Handle
  Surface 19,                             !- Name
  Floor,                                  !- Surface Type
  ,                                       !- Construction Name
  {de8de9bf-310a-4ee5-a5e4-ae04b8471908}, !- Space Name
  Ground,                                 !- Outside Boundary Condition
  ,                                       !- Outside Boundary Condition Object
  NoSun,                                  !- Sun Exposure
  NoWind,                                 !- Wind Exposure
  ,                                       !- View Factor to Ground
  ,                                       !- Number of Vertices
  28.2807354925575, 0, 0,                 !- X,Y,Z Vertex 1 {m}
  0, 0, 0,                                !- X,Y,Z Vertex 2 {m}
  3, 3, 0,                                !- X,Y,Z Vertex 3 {m}
  25.2807354925575, 3, 0;                 !- X,Y,Z Vertex 4 {m}

OS:Surface,
  {2ba47b87-e45f-428b-95fe-1821c2adbe0e}, !- Handle
  Surface 20,                             !- Name
  Wall,                                   !- Surface Type
  ,                                       !- Construction Name
  {de8de9bf-310a-4ee5-a5e4-ae04b8471908}, !- Space Name
  Outdoors,                               !- Outside Boundary Condition
  ,                                       !- Outside Boundary Condition Object
  SunExposed,                             !- Sun Exposure
  WindExposed,                            !- Wind Exposure
  ,                                       !- View Factor to Ground
  ,                                       !- Number of Vertices
  0, 0, 4,                                !- X,Y,Z Vertex 1 {m}
  0, 0, 0,                                !- X,Y,Z Vertex 2 {m}
  28.2807354925575, 0, 0,                 !- X,Y,Z Vertex 3 {m}
  28.2807354925575, 0, 4;                 !- X,Y,Z Vertex 4 {m}

OS:Surface,
  {b1ac9b15-d6e0-423d-ace4-f5071e3e8dbd}, !- Handle
  Surface 21,                             !- Name
  Wall,                                   !- Surface Type
  ,                                       !- Construction Name
  {de8de9bf-310a-4ee5-a5e4-ae04b8471908}, !- Space Name
  Surface,                                !- Outside Boundary Condition
  {3aa229dc-9ee8-4c4f-b29c-f5984fe1b786}, !- Outside Boundary Condition Object
  NoSun,                                  !- Sun Exposure
  NoWind,                                 !- Wind Exposure
  ,                                       !- View Factor to Ground
  ,                                       !- Number of Vertices
  3, 3, 4,                                !- X,Y,Z Vertex 1 {m}
  3, 3, 0,                                !- X,Y,Z Vertex 2 {m}
  0, 0, 0,                                !- X,Y,Z Vertex 3 {m}
  0, 0, 4;                                !- X,Y,Z Vertex 4 {m}

OS:Surface,
  {176ff7bc-2652-4077-a26e-fbf37d911275}, !- Handle
  Surface 22,                             !- Name
  Wall,                                   !- Surface Type
  ,                                       !- Construction Name
  {de8de9bf-310a-4ee5-a5e4-ae04b8471908}, !- Space Name
  Surface,                                !- Outside Boundary Condition
  {5c2c7217-c29e-4bed-b582-81f00b271866}, !- Outside Boundary Condition Object
  NoSun,                                  !- Sun Exposure
  NoWind,                                 !- Wind Exposure
  ,                                       !- View Factor to Ground
  ,                                       !- Number of Vertices
  25.2807354925575, 3, 4,                 !- X,Y,Z Vertex 1 {m}
  25.2807354925575, 3, 0,                 !- X,Y,Z Vertex 2 {m}
  3, 3, 0,                                !- X,Y,Z Vertex 3 {m}
  3, 3, 4;                                !- X,Y,Z Vertex 4 {m}

OS:Surface,
  {1be71020-b886-4d65-a34b-d02cd8869dc7}, !- Handle
  Surface 23,                             !- Name
  Wall,                                   !- Surface Type
  ,                                       !- Construction Name
  {de8de9bf-310a-4ee5-a5e4-ae04b8471908}, !- Space Name
  Surface,                                !- Outside Boundary Condition
  {63bd4882-a134-4289-b352-4fd23413cbf7}, !- Outside Boundary Condition Object
  NoSun,                                  !- Sun Exposure
  NoWind,                                 !- Wind Exposure
  ,                                       !- View Factor to Ground
  ,                                       !- Number of Vertices
  28.2807354925575, 0, 4,                 !- X,Y,Z Vertex 1 {m}
  28.2807354925575, 0, 0,                 !- X,Y,Z Vertex 2 {m}
  25.2807354925575, 3, 0,                 !- X,Y,Z Vertex 3 {m}
  25.2807354925575, 3, 4;                 !- X,Y,Z Vertex 4 {m}

OS:Surface,
  {17b63414-85f7-4899-abb9-85d49c92c29e}, !- Handle
  Surface 24,                             !- Name
  RoofCeiling,                            !- Surface Type
  ,                                       !- Construction Name
  {de8de9bf-310a-4ee5-a5e4-ae04b8471908}, !- Space Name
  Surface,                                !- Outside Boundary Condition
  {43d92bd3-2982-4430-b7c6-3f15138d947d}, !- Outside Boundary Condition Object
  NoSun,                                  !- Sun Exposure
  NoWind,                                 !- Wind Exposure
  ,                                       !- View Factor to Ground
  ,                                       !- Number of Vertices
  25.2807354925575, 3, 4,                 !- X,Y,Z Vertex 1 {m}
  3, 3, 4,                                !- X,Y,Z Vertex 2 {m}
  0, 0, 4,                                !- X,Y,Z Vertex 3 {m}
  28.2807354925575, 0, 4;                 !- X,Y,Z Vertex 4 {m}

OS:Space,
  {c5d08ba6-ab9f-4c85-9332-5439bd83a1dc}, !- Handle
  Story 1 Core Space,                     !- Name
  ,                                       !- Space Type Name
  ,                                       !- Default Construction Set Name
  ,                                       !- Default Schedule Set Name
  -0,                                     !- Direction of Relative North {deg}
  3,                                      !- X Origin {m}
  3,                                      !- Y Origin {m}
  0,                                      !- Z Origin {m}
  {a17b454b-5ff8-4a47-bd3e-8549e410ba2a}, !- Building Story Name
  {6e4580ae-f350-471b-8cf3-37b77e29ae72}; !- Thermal Zone Name

OS:Surface,
  {5ab599a7-5602-4a14-b066-8065172d8377}, !- Handle
  Surface 25,                             !- Name
  Floor,                                  !- Surface Type
  ,                                       !- Construction Name
  {c5d08ba6-ab9f-4c85-9332-5439bd83a1dc}, !- Space Name
  Ground,                                 !- Outside Boundary Condition
  ,                                       !- Outside Boundary Condition Object
  NoSun,                                  !- Sun Exposure
  NoWind,                                 !- Wind Exposure
  ,                                       !- View Factor to Ground
  ,                                       !- Number of Vertices
  0, 0, 0,                                !- X,Y,Z Vertex 1 {m}
  0, 22.2807354925575, 0,                 !- X,Y,Z Vertex 2 {m}
  22.2807354925575, 22.2807354925575, 0,  !- X,Y,Z Vertex 3 {m}
  22.2807354925575, 0, 0;                 !- X,Y,Z Vertex 4 {m}

OS:Surface,
  {e3c5b719-e2f3-4e93-bb9c-825514edc93d}, !- Handle
  Surface 26,                             !- Name
  Wall,                                   !- Surface Type
  ,                                       !- Construction Name
  {c5d08ba6-ab9f-4c85-9332-5439bd83a1dc}, !- Space Name
  Surface,                                !- Outside Boundary Condition
  {02f77fff-05ad-4d52-b7c7-feee7b7c9661}, !- Outside Boundary Condition Object
  NoSun,                                  !- Sun Exposure
  NoWind,                                 !- Wind Exposure
  ,                                       !- View Factor to Ground
  ,                                       !- Number of Vertices
  0, 22.2807354925575, 4,                 !- X,Y,Z Vertex 1 {m}
  0, 22.2807354925575, 0,                 !- X,Y,Z Vertex 2 {m}
  0, 0, 0,                                !- X,Y,Z Vertex 3 {m}
  0, 0, 4;                                !- X,Y,Z Vertex 4 {m}

OS:Surface,
  {8a8eb3e5-9d95-4bc0-b055-9c6e6e3b7612}, !- Handle
  Surface 27,                             !- Name
  Wall,                                   !- Surface Type
  ,                                       !- Construction Name
  {c5d08ba6-ab9f-4c85-9332-5439bd83a1dc}, !- Space Name
  Surface,                                !- Outside Boundary Condition
  {450a534e-e45f-464a-bb86-12f05ebd7853}, !- Outside Boundary Condition Object
  NoSun,                                  !- Sun Exposure
  NoWind,                                 !- Wind Exposure
  ,                                       !- View Factor to Ground
  ,                                       !- Number of Vertices
  22.2807354925575, 22.2807354925575, 4,  !- X,Y,Z Vertex 1 {m}
  22.2807354925575, 22.2807354925575, 0,  !- X,Y,Z Vertex 2 {m}
  0, 22.2807354925575, 0,                 !- X,Y,Z Vertex 3 {m}
  0, 22.2807354925575, 4;                 !- X,Y,Z Vertex 4 {m}

OS:Surface,
  {0a4ef21b-4259-469a-b9b4-03460579d3f6}, !- Handle
  Surface 28,                             !- Name
  Wall,                                   !- Surface Type
  ,                                       !- Construction Name