
OS:Version,
  {b707add6-6de9-4387-b3df-4e87a1cc4a6c}, !- Handle
  0.10.0;                                 !- Version Identifier

OS:BuildingStory,
  {5bd3897c-2b0d-4457-a583-9eb709acb431}, !- Handle
  Story 1,                                !- Name
  0,                                      !- Nominal Z Coordinate {m}
  4,                                      !- Nominal Floor to Floor Height {m}
  ,                                       !- Default Construction Set Name
  ,                                       !- Default Schedule Set Name
  ;                                       !- Group Rendering Name

OS:Space,
  {a998e789-81b2-48f7-bde4-909b1a7db64c}, !- Handle
  Story 1 West Perimeter Space,           !- Name
  ,                                       !- Space Type Name
  ,                                       !- Default Construction Set Name
  ,                                       !- Default Schedule Set Name
  -0,                                     !- Direction of Relative North {deg}
  0,                                      !- X Origin {m}
  0,                                      !- Y Origin {m}
  0,                                      !- Z Origin {m}
  {5bd3897c-2b0d-4457-a583-9eb709acb431}, !- Building Story Name
  {8c75e182-88f2-441a-8ea3-95001c838e83}; !- Thermal Zone Name

OS:Surface,
  {848533a9-6980-423f-88f9-849cd0263220}, !- Handle
  Surface 1,                              !- Name
  Floor,                                  !- Surface Type
  ,                                       !- Construction Name
  {a998e789-81b2-48f7-bde4-909b1a7db64c}, !- Space Name
  Ground,                                 !- Outside Boundary Condition
  ,                                       !- Outside Boundary Condition Object
  NoSun,                                  !- Sun Exposure
  NoWind,                                 !- Wind Exposure
  ,                                       !- View Factor to Ground
  ,                                       !- Number of Vertices
  0, 0, 0,                                !- X,Y,Z Vertex 1 {m}
  0, 22.6053091109146, 0,                 !- X,Y,Z Vertex 2 {m}
  3, 19.6053091109146, 0,                 !- X,Y,Z Vertex 3 {m}
  3, 3, 0;                                !- X,Y,Z Vertex 4 {m}

OS:Surface,
  {223ec991-0f1f-4f00-ba3c-fb46e37b3a8e}, !- Handle
  Surface 2,                              !- Name
  Wall,                                   !- Surface Type
  ,                                       !- Construction Name
  {a998e789-81b2-48f7-bde4-909b1a7db64c}, !- Space Name
  Outdoors,                               !- Outside Boundary Condition
  ,                                       !- Outside Boundary Condition Object
  SunExposed,                             !- Sun Exposure
  WindExposed,                            !- Wind Exposure
  ,                                       !- View Factor to Ground
  ,                                       !- Number of Vertices
  0, 22.6053091109146, 4,                 !- X,Y,Z Vertex 1 {m}
  0, 22.6053091109146, 0,                 !- X,Y,Z Vertex 2 {m}
  0, 0, 0,                                !- X,Y,Z Vertex 3 {m}
  0, 0, 4;                                !- X,Y,Z Vertex 4 {m}

OS:Surface,
  {800ca8ee-b9a4-4bd9-a1e3-383a8714725c}, !- Handle
  Surface 3,                              !- Name
  Wall,                                   !- Surface Type
  ,                                       !- Construction Name
  {a998e789-81b2-48f7-bde4-909b1a7db64c}, !- Space Name
  Surface,                                !- Outside Boundary Condition
  {aa89510f-078c-4517-8ec1-997f9a4fdc32}, !- Outside Boundary Condition Object
  NoSun,                                  !- Sun Exposure
  NoWind,                                 !- Wind Exposure
  ,                                       !- View Factor to Ground
  ,                                       !- Number of Vertices
  3, 19.6053091109146, 4,                 !- X,Y,Z Vertex 1 {m}
  3, 19.6053091109146, 0,                 !- X,Y,Z Vertex 2 {m}
  0, 22.6053091109146, 0,                 !- X,Y,Z Vertex 3 {m}
  0, 22.6053091109146, 4;                 !- X,Y,Z Vertex 4 {m}

OS:Surface,
  {4b4723e6-10b7-43c6-a14e-5cd607d1d9d3}, !- Handle
  Surface 4,                              !- Name
  Wall,                                   !- Surface Type
  ,                                       !- Construction Name
  {a998e789-81b2-48f7-bde4-909b1a7db64c}, !- Space Name
  Surface,                                !- Outside Boundary Condition
  {c715396d-f997-47dc-97d5-1fb20287b410}, !- Outside Boundary Condition Object
  NoSun,                                  !- Sun Exposure
  NoWind,                                 !- Wind Exposure
  ,                                       !- View Factor to Ground
  ,                                       !- Number of Vertices
  3, 3, 4,                                !- X,Y,Z Vertex 1 {m}
  3, 3, 0,                                !- X,Y,Z Vertex 2 {m}
  3, 19.6053091109146, 0,                 !- X,Y,Z Vertex 3 {m}
  3, 19.6053091109146, 4;                 !- X,Y,Z Vertex 4 {m}

OS:Surface,
  {74d70a1b-465e-48fd-8bbe-665a9fb1af8c}, !- Handle
  Surface 5,                              !- Name
  Wall,                                   !- Surface Type
  ,                                       !- Construction Name
  {a998e789-81b2-48f7-bde4-909b1a7db64c}, !- Space Name
  Surface,                                !- Outside Boundary Condition
  {939397fd-f7fe-429b-9de3-ac0ed5502200}, !- Outside Boundary Condition Object
  NoSun,                                  !- Sun Exposure
  NoWind,                                 !- Wind Exposure
  ,                                       !- View Factor to Ground
  ,                                       !- Number of Vertices
  0, 0, 4,                                !- X,Y,Z Vertex 1 {m}
  0, 0, 0,                                !- X,Y,Z Vertex 2 {m}
  3, 3, 0,                                !- X,Y,Z Vertex 3 {m}
  3, 3, 4;                                !- X,Y,Z Vertex 4 {m}

OS:Surface,
  {12755e60-98e3-44e4-a313-d561ea857447}, !- Handle
  Surface 6,                              !- Name
  RoofCeiling,                            !- Surface Type
  ,                                       !- Construction Name
  {a998e789-81b2-48f7-bde4-909b1a7db64c}, !- Space Name
  Outdoors,                               !- Outside Boundary Condition
  ,                                       !- Outside Boundary Condition Object
  SunExposed,                             !- Sun Exposure
  WindExposed,                            !- Wind Exposure
  ,                                       !- View Factor to Ground
  ,                                       !- Number of Vertices
  3, 3, 4,                                !- X,Y,Z Vertex 1 {m}
  3, 19.6053091109146, 4,                 !- X,Y,Z Vertex 2 {m}
  0, 22.6053091109146, 4,                 !- X,Y,Z Vertex 3 {m}
  0, 0, 4;                                !- X,Y,Z Vertex 4 {m}

OS:Space,
  {30d658b3-8c09-4418-8d84-5ea1489c2019}, !- Handle
  Story 1 North Perimeter Space,          !- Name
  ,                                       !- Space Type Name
  ,                                       !- Default Construction Set Name
  ,                                       !- Default Schedule Set Name
  -0,                                     !- Direction of Relative North {deg}
  3,                                      !- X Origin {m}
  19.6053091109146,                       !- Y Origin {m}
  0,                                      !- Z Origin {m}
  {5bd3897c-2b0d-4457-a583-9eb709acb431}, !- Building Story Name
  {9badc66e-5949-45a8-9b5d-a9081bcdb6a7}; !- Thermal Zone Name

OS:Surface,
  {71550446-2443-4c30-a641-003fdda88a82}, !- Handle
  Surface 7,                              !- Name
  Floor,                                  !- Surface Type
  ,                                       !- Construction Name
  {30d658b3-8c09-4418-8d84-5ea1489c2019}, !- Space Name
  Ground,                                 !- Outside Boundary Condition
  ,                                       !- Outside Boundary Condition Object
  NoSun,                                  !- Sun Exposure
  NoWind,                                 !- Wind Exposure
  ,                                       !- View Factor to Ground
  ,                                       !- Number of Vertices
  -3, 2.99999999999997, 0,                !- X,Y,Z Vertex 1 {m}
  19.6053091109146, 2.99999999999997, 0,  !- X,Y,Z Vertex 2 {m}
  16.6053091109146, -2.8421709430404e-14, 0, !- X,Y,Z Vertex 3 {m}
  0, -2.8421709430404e-14, 0;             !- X,Y,Z Vertex 4 {m}

OS:Surface,
  {e60dab02-4b58-404e-989f-41a6649bc7d1}, !- Handle
  Surface 8,                              !- Name
  Wall,                                   !- Surface Type
  ,                                       !- Construction Name
  {30d658b3-8c09-4418-8d84-5ea1489c2019}, !- Space Name
  Outdoors,                               !- Outside Boundary Condition
  ,                                       !- Outside Boundary Condition Object
  SunExposed,                             !- Sun Exposure
  WindExposed,                            !- Wind Exposure
  ,                                       !- View Factor to Ground
  ,                                       !- Number of Vertices
  19.6053091109146, 2.99999999999997, 4,  !- X,Y,Z Vertex 1 {m}
  19.6053091109146, 2.99999999999997, 0,  !- X,Y,Z Vertex 2 {m}
  -3, 2.99999999999997, 0,                !- X,Y,Z Vertex 3 {m}
  -3, 2.99999999999997, 4;                !- X,Y,Z Vertex 4 {m}

OS:Surface,
  {ac8248f9-5cdc-4ae2-9c85-9f1f350ee047}, !- Handle
  Surface 9,                              !- Name
  Wall,                                   !- Surface Type
  ,                                       !- Construction Name
  {30d658b3-8c09-4418-8d84-5ea1489c2019}, !- Space Name
  Surface,                                !- Outside Boundary Condition
  {6eabc7a1-940b-4f38-aa5a-192a928592da}, !- Outside Boundary Condition Object
  NoSun,                                  !- Sun Exposure
  NoWind,                                 !- Wind Exposure
  ,                                       !- View Factor to Ground
  ,                                       !- Number of Vertices
  16.6053091109146, -2.8421709430404e-14, 4, !- X,Y,Z Vertex 1 {m}
  16.6053091109146, -2.8421709430404e-14, 0, !- X,Y,Z Vertex 2 {m}
  19.6053091109146, 2.99999999999997, 0,  !- X,Y,Z Vertex 3 {m}
  19.6053091109146, 2.99999999999997, 4;  !- X,Y,Z Vertex 4 {m}

OS:Surface,
  {acdd7881-a8f6-4b35-8bfe-d25e8e6ee765}, !- Handle
  Surface 10,                             !- Name
  Wall,                                   !- Surface Type
  ,                                       !- Construction Name
  {30d658b3-8c09-4418-8d84-5ea1489c2019}, !- Space Name
  Surface,                                !- Outside Boundary Condition
  {e96c41a0-7f63-447c-bf81-1a8a813651b7}, !- Outside Boundary Condition Object
  NoSun,                                  !- Sun Exposure
  NoWind,                                 !- Wind Exposure
  ,                                       !- View Factor to Ground
  ,                                       !- Number of Vertices
  0, -2.8421709430404e-14, 4,             !- X,Y,Z Vertex 1 {m}
  0, -2.8421709430404e-14, 0,             !- X,Y,Z Vertex 2 {m}
  16.6053091109146, -2.8421709430404e-14, 0, !- X,Y,Z Vertex 3 {m}
  16.6053091109146, -2.8421709430404e-14, 4; !- X,Y,Z Vertex 4 {m}

OS:Surface,
  {aa89510f-078c-4517-8ec1-997f9a4fdc32}, !- Handle
  Surface 11,                             !- Name
  Wall,                                   !- Surface Type
  ,                                       !- Construction Name
  {30d658b3-8c09-4418-8d84-5ea1489c2019}, !- Space Name
  Surface,                                !- Outside Boundary Condition
  {800ca8ee-b9a4-4bd9-a1e3-383a8714725c}, !- Outside Boundary Condition Object
  NoSun,                                  !- Sun Exposure
  NoWind,                                 !- Wind Exposure
  ,                                       !- View Factor to Ground
  ,                                       !- Number of Vertices
  -3, 2.99999999999997, 4,                !- X,Y,Z Vertex 1 {m}
  -3, 2.99999999999997, 0,                !- X,Y,Z Vertex 2 {m}
  0, -2.8421709430404e-14, 0,             !- X,Y,Z Vertex 3 {m}
  0, -2.8421709430404e-14, 4;             !- X,Y,Z Vertex 4 {m}

OS:Surface,
  {f6ea9ecf-cecd-485c-87be-b0b13cd8fd54}, !- Handle
  Surface 12,                             !- Name
  RoofCeiling,                            !- Surface Type
  ,                                       !- Construction Name
  {30d658b3-8c09-4418-8d84-5ea1489c2019}, !- Space Name
  Outdoors,                               !- Outside Boundary Condition
  ,                                       !- Outside Boundary Condition Object
  SunExposed,                             !- Sun Exposure
  WindExposed,                            !- Wind Exposure
  ,                                       !- View Factor to Ground
  ,                                       !- Number of Vertices
  0, -2.8421709430404e-14, 4,             !- X,Y,Z Vertex 1 {m}
  16.6053091109146, -2.8421709430404e-14, 4, !- X,Y,Z Vertex 2 {m}
  19.6053091109146, 2.99999999999997, 4,  !- X,Y,Z Vertex 3 {m}
  -3, 2.99999999999997, 4;                !- X,Y,Z Vertex 4 {m}

OS:Space,
  {63be8fc1-1e8c-4352-9eb2-967bdf49e474}, !- Handle
  Story 1 East Perimeter Space,           !- Name
  ,                                       !- Space Type Name
  ,                                       !- Default Construction Set Name
  ,                                       !- Default Schedule Set Name
  -0,                                     !- Direction of Relative North {deg}
  19.6053091109146,                       !- X Origin {m}
  3,                                      !- Y Origin {m}
  0,                                      !- Z Origin {m}
  {5bd3897c-2b0d-4457-a583-9eb709acb431}, !- Building Story Name
  {b3a2fd6e-363a-41a3-a62a-a9f2bf05157c}; !- Thermal Zone Name

OS:Surface,
  {71c5d4f3-8eca-4489-9612-6ef1b1aa42ed}, !- Handle
  Surface 13,                             !- Name
  Floor,                                  !- Surface Type
  ,                                       !- Construction Name
  {63be8fc1-1e8c-4352-9eb2-967bdf49e474}, !- Space Name
  Ground,                                 !- Outside Boundary Condition
  ,                                       !- Outside Boundary Condition Object
  NoSun,                                  !- Sun Exposure
  NoWind,                                 !- Wind Exposure
  ,                                       !- View Factor to Ground
  ,                                       !- Number of Vertices
  2.99999999999997, 19.6053091109146, 0,  !- X,Y,Z Vertex 1 {m}
  2.99999999999997, -3, 0,                !- X,Y,Z Vertex 2 {m}
  -2.8421709430404e-14, 0, 0,             !- X,Y,Z Vertex 3 {m}
  -2.8421709430404e-14, 16.6053091109146, 0; !- X,Y,Z Vertex 4 {m}

OS:Surface,
  {5391e21c-5a7c-429e-96cd-cc19e9059b6d}, !- Handle
  Surface 14,                             !- Name
  Wall,                                   !- Surface Type
  ,                                       !- Construction Name
  {63be8fc1-1e8c-4352-9eb2-967bdf49e474}, !- Space Name
  Outdoors,                               !- Outside Boundary Condition
  ,                                       !- Outside Boundary Condition Object
  SunExposed,                             !- Sun Exposure
  WindExposed,                            !- Wind Exposure
  ,                                       !- View Factor to Ground
  ,                                       !- Number of Vertices
  2.99999999999997, -3, 4,                !- X,Y,Z Vertex 1 {m}
  2.99999999999997, -3, 0,                !- X,Y,Z Vertex 2 {m}
  2.99999999999997, 19.6053091109146, 0,  !- X,Y,Z Vertex 3 {m}
  2.99999999999997, 19.6053091109146, 4;  !- X,Y,Z Vertex 4 {m}

OS:Surface,
  {7983afd1-b05c-4bf3-b2df-9587e5735ec6}, !- Handle
  Surface 15,                             !- Name
  Wall,                                   !- Surface Type
  ,                                       !- Construction Name
  {63be8fc1-1e8c-4352-9eb2-967bdf49e474}, !- Space Name
  Surface,                                !- Outside Boundary Condition
  {80281dab-eb81-4bc2-bb67-98b34e7d5bff}, !- Outside Boundary Condition Object
  NoSun,                                  !- Sun Exposure
  NoWind,                                 !- Wind Exposure
  ,                                       !- View Factor to Ground
  ,                                       !- Number of Vertices
  -2.8421709430404e-14, 0, 4,             !- X,Y,Z Vertex 1 {m}
  -2.8421709430404e-14, 0, 0,             !- X,Y,Z Vertex 2 {m}
  2.99999999999997, -3, 0,                !- X,Y,Z Vertex 3 {m}
  2.99999999999997, -3, 4;                !- X,Y,Z Vertex 4 {m}

OS:Surface,
  {0e4cce25-ff2f-480c-822c-2618558b081e}, !- Handle
  Surface 16,                             !- Name
  Wall,                                   !- Surface Type
  ,                                       !- Construction Name
  {63be8fc1-1e8c-4352-9eb2-967bdf49e474}, !- Space Name
  Surface,                                !- Outside Boundary Condition
  {ce105da1-40bf-4cb4-a7f1-fc894347fc8f}, !- Outside Boundary Condition Object
  NoSun,                                  !- Sun Exposure
  NoWind,                                 !- Wind Exposure
  ,                                       !- View Factor to Ground
  ,                                       !- Number of Vertices
  -2.8421709430404e-14, 16.6053091109146, 4, !- X,Y,Z Vertex 1 {m}
  -2.8421709430404e-14, 16.6053091109146, 0, !- X,Y,Z Vertex 2 {m}
  -2.8421709430404e-14, 0, 0,             !- X,Y,Z Vertex 3 {m}
  -2.8421709430404e-14, 0, 4;             !- X,Y,Z Vertex 4 {m}

OS:Surface,
  {6eabc7a1-940b-4f38-aa5a-192a928592da}, !- Handle
  Surface 17,                             !- Name
  Wall,                                   !- Surface Type
  ,                                       !- Construction Name
  {63be8fc1-1e8c-4352-9eb2-967bdf49e474}, !- Space Name
  Surface,                                !- Outside Boundary Condition
  {ac8248f9-5cdc-4ae2-9c85-9f1f350ee047}, !- Outside Boundary Condition Object
  NoSun,                                  !- Sun Exposure
  NoWind,                                 !- Wind Exposure
  ,                                       !- View Factor to Ground
  ,                                       !- Number of Vertices
  2.99999999999997, 19.6053091109146, 4,  !- X,Y,Z Vertex 1 {m}
  2.99999999999997, 19.6053091109146, 0,  !- X,Y,Z Vertex 2 {m}
  -2.8421709430404e-14, 16.6053091109146, 0, !- X,Y,Z Vertex 3 {m}
  -2.8421709430404e-14, 16.6053091109146, 4; !- X,Y,Z Vertex 4 {m}

OS:Surface,
  {ee62c46f-3965-42da-8383-082da7fc50b2}, !- Handle
  Surface 18,                             !- Name
  RoofCeiling,                            !- Surface Type
  ,                                       !- Construction Name
  {63be8fc1-1e8c-4352-9eb2-967bdf49e474}, !- Space Name
  Outdoors,                               !- Outside Boundary Condition
  ,                                       !- Outside Boundary Condition Object
  SunExposed,                             !- Sun Exposure
  WindExposed,                            !- Wind Exposure
  ,                                       !- View Factor to Ground
  ,                                       !- Number of Vertices
  -2.8421709430404e-14, 16.6053091109146, 4, !- X,Y,Z Vertex 1 {m}
  -2.8421709430404e-14, 0, 4,             !- X,Y,Z Vertex 2 {m}
  2.99999999999997, -3, 4,                !- X,Y,Z Vertex 3 {m}
  2.99999999999997, 19.6053091109146, 4;  !- X,Y,Z Vertex 4 {m}

OS:Space,
  {f13c73b0-b426-4809-8955-86627fd31b3b}, !- Handle
  Story 1 South Perimeter Space,          !- Name
  ,                                       !- Space Type Name
  ,                                       !- Default Construction Set Name
  ,                                       !- Default Schedule Set Name
  -0,                                     !- Direction of Relative North {deg}
  0,                                      !- X Origin {m}
  0,                                      !- Y Origin {m}
  0,                                      !- Z Origin {m}
  {5bd3897c-2b0d-4457-a583-9eb709acb431}, !- Building Story Name
  {61bbee8a-fd87-4057-be0a-0ef7557c3220}; !- Thermal Zone Name

OS:Surface,
  {098b9b8c-ddf9-4795-8c68-766bd31cdcb1}, !- Handle
  Surface 19,                             !- Name
  Floor,                                  !- Surface Type
  ,                                       !- Construction Name
  {f13c73b0-b426-4809-8955-86627fd31b3b}, !- Space Name
  Ground,                                 !- Outside Boundary Condition
  ,                                       !- Outside Boundary Condition Object
  NoSun,                                  !- Sun Exposure
  NoWind,                                 !- Wind Exposure
  ,                                       !- View Factor to Ground
  ,                                       !- Number of Vertices
  22.6053091109146, 0, 0,                 !- X,Y,Z Vertex 1 {m}
  0, 0, 0,                                !- X,Y,Z Vertex 2 {m}
  3, 3, 0,                                !- X,Y,Z Vertex 3 {m}
  19.6053091109146, 3, 0;                 !- X,Y,Z Vertex 4 {m}

OS:Surface,
  {777d5b91-89a9-46b4-8da1-967a4c25c23f}, !- Handle
  Surface 20,                             !- Name
  Wall,                                   !- Surface Type
  ,                                       !- Construction Name
  {f13c73b0-b426-4809-8955-86627fd31b3b}, !- Space Name
  Outdoors,                               !- Outside Boundary Condition
  ,                                       !- Outside Boundary Condition Object
  SunExposed,                             !- Sun Exposure
  WindExposed,                            !- Wind Exposure
  ,                                       !- View Factor to Ground
  ,                                       !- Number of Vertices
  0, 0, 4,                                !- X,Y,Z Vertex 1 {m}
  0, 0, 0,                                !- X,Y,Z Vertex 2 {m}
  22.6053091109146, 0, 0,                 !- X,Y,Z Vertex 3 {m}
  22.6053091109146, 0, 4;                 !- X,Y,Z Vertex 4 {m}

OS:Surface,
  {939397fd-f7fe-429b-9de3-ac0ed5502200}, !- Handle
  Surface 21,                             !- Name
  Wall,                                   !- Surface Type
  ,                                       !- Construction Name
  {f13c73b0-b426-4809-8955-86627fd31b3b}, !- Space Name
  Surface,                                !- Outside Boundary Condition
  {74d70a1b-465e-48fd-8bbe-665a9fb1af8c}, !- Outside Boundary Condition Object
  NoSun,                                  !- Sun Exposure
  NoWind,                                 !- Wind Exposure
  ,                                       !- View Factor to Ground
  ,                                       !- Number of Vertices
  3, 3, 4,                                !- X,Y,Z Vertex 1 {m}
  3, 3, 0,                                !- X,Y,Z Vertex 2 {m}
  0, 0, 0,                                !- X,Y,Z Vertex 3 {m}
  0, 0, 4;                                !- X,Y,Z Vertex 4 {m}

OS:Surface,
  {6f8a3123-fd0b-4cfc-95e6-70c08d99674e}, !- Handle
  Surface 22,                             !- Name
  Wall,                                   !- Surface Type
  ,                                       !- Construction Name
  {f13c73b0-b426-4809-8955-86627fd31b3b}, !- Space Name
  Surface,                                !- Outside Boundary Condition
  {c476a339-066f-41fa-a0ef-dceb60ca5253}, !- Outside Boundary Condition Object
  NoSun,                                  !- Sun Exposure
  NoWind,                                 !- Wind Exposure
  ,                                       !- View Factor to Ground
  ,                                       !- Number of Vertices
  19.6053091109146, 3, 4,                 !- X,Y,Z Vertex 1 {m}
  19.6053091109146, 3, 0,                 !- X,Y,Z Vertex 2 {m}
  3, 3, 0,                                !- X,Y,Z Vertex 3 {m}
  3, 3, 4;                                !- X,Y,Z Vertex 4 {m}

OS:Surface,
  {80281dab-eb81-4bc2-bb67-98b34e7d5bff}, !- Handle
  Surface 23,                             !- Name
  Wall,                                   !- Surface Type
  ,                                       !- Construction Name
  {f13c73b0-b426-4809-8955-86627fd31b3b}, !- Space Name
  Surface,                                !- Outside Boundary Condition
  {7983afd1-b05c-4bf3-b2df-9587e5735ec6}, !- Outside Boundary Condition Object
  NoSun,                                  !- Sun Exposure
  NoWind,                                 !- Wind Exposure
  ,                                       !- View Factor to Ground
  ,                                       !- Number of Vertices
  22.6053091109146, 0, 4,                 !- X,Y,Z Vertex 1 {m}
  22.6053091109146, 0, 0,                 !- X,Y,Z Vertex 2 {m}
  19.6053091109146, 3, 0,                 !- X,Y,Z Vertex 3 {m}
  19.6053091109146, 3, 4;                 !- X,Y,Z Vertex 4 {m}

OS:Surface,
  {a323866a-9afb-42e4-8aa6-152f8b3a7845}, !- Handle
  Surface 24,                             !- Name
  RoofCeiling,                            !- Surface Type
  ,                                       !- Construction Name
  {f13c73b0-b426-4809-8955-86627fd31b3b}, !- Space Name
  Outdoors,                               !- Outside Boundary Condition
  ,                                       !- Outside Boundary Condition Object
  SunExposed,                             !- Sun Exposure
  WindExposed,                            !- Wind Exposure
  ,                                       !- View Factor to Ground
  ,                                       !- Number of Vertices
  19.6053091109146, 3, 4,                 !- X,Y,Z Vertex 1 {m}
  3, 3, 4,                                !- X,Y,Z Vertex 2 {m}
  0, 0, 4,                                !- X,Y,Z Vertex 3 {m}
  22.6053091109146, 0, 4;                 !- X,Y,Z Vertex 4 {m}

OS:Space,
  {37e38b29-9fd6-4b27-8fee-c5274baa1f1d}, !- Handle
  Story 1 Core Space,                     !- Name
  ,                                       !- Space Type Name
  ,                                       !- Default Construction Set Name
  ,                                       !- Default Schedule Set Name
  -0,                                     !- Direction of Relative North {deg}
  3,                                      !- X Origin {m}
  3,                                      !- Y Origin {m}
  0,                                      !- Z Origin {m}
  {5bd3897c-2b0d-4457-a583-9eb709acb431}, !- Building Story Name
  {8e22c169-dc14-4e9e-805f-8c6cf5a75c74}; !- Thermal Zone Name

OS:Surface,
  {340eeb39-00dc-4116-b97c-0912c1ab0b9c}, !- Handle
  Surface 25,                             !- Name
  Floor,                                  !- Surface Type
  ,                                       !- Construction Name
  {37e38b29-9fd6-4b27-8fee-c5274baa1f1d}, !- Space Name
  Ground,                                 !- Outside Boundary Condition
  ,                                       !- Outside Boundary Condition Object
  NoSun,                                  !- Sun Exposure
  NoWind,                                 !- Wind Exposure
  ,                                       !- View Factor to Ground
  ,                                       !- Number of Vertices
  0, 0, 0,                                !- X,Y,Z Vertex 1 {m}
  0, 16.6053091109146, 0,                 !- X,Y,Z Vertex 2 {m}
  16.6053091109146, 16.6053091109146, 0,  !- X,Y,Z Vertex 3 {m}
  16.6053091109146, 0, 0;                 !- X,Y,Z Vertex 4 {m}

OS:Surface,
  {c715396d-f997-47dc-97d5-1fb20287b410}, !- Handle
  Surface 26,                             !- Name
  Wall,                                   !- Surface Type
  ,                                       !- Construction Name
  {37e38b29-9fd6-4b27-8fee-c5274baa1f1d}, !- Space Name
  Surface,                                !- Outside Boundary Condition
  {4b4723e6-10b7-43c6-a14e-5cd607d1d9d3}, !- Outside Boundary Condition Object
  NoSun,                                  !- Sun Exposure
  NoWind,                                 !- Wind Exposure
  ,                                       !- View Factor to Ground
  ,                                       !- Number of Vertices
  0, 16.6053091109146, 4,                 !- X,Y,Z Vertex 1 {m}
  0, 16.6053091109146, 0,                 !- X,Y,Z Vertex 2 {m}
  0, 0, 0,                                !- X,Y,Z Vertex 3 {m}
  0, 0, 4;                                !- X,Y,Z Vertex 4 {m}

OS:Surface,
  {e96c41a0-7f63-447c-bf81-1a8a813651b7}, !- Handle
  Surface 27,                             !- Name
  Wall,                                   !- Surface Type
  ,                                       !- Construction Name
  {37e38b29-9fd6-4b27-8fee-c5274baa1f1d}, !- Space Name
  Surface,                                !- Outside Boundary Condition
  {acdd7881-a8f6-4b35-8bfe-d25e8e6ee765}, !- Outside Boundary Condition Object
  NoSun,                                  !- Sun Exposure
  NoWind,                                 !- Wind Exposure
  ,                                       !- View Factor to Ground
  ,                                       !- Number of Vertices
  16.6053091109146, 16.6053091109146, 4,  !- X,Y,Z Vertex 1 {m}
  16.6053091109146, 16.6053091109146, 0,  !- X,Y,Z Vertex 2 {m}
  0, 16.6053091109146, 0,                 !- X,Y,Z Vertex 3 {m}
  0, 16.6053091109146, 4;                 !- X,Y,Z Vertex 4 {m}

OS:Surface,
  {ce105da1-40bf-4cb4-a7f1-fc894347fc8f}, !- Handle
  Surface 28,                             !- Name
  Wall,                                   !- Surface Type
  ,                                       !- Construction Name