
OS:Version,
  {9b6b833c-959a-4bb4-ad6f-6e28f0901427}, !- Handle
  0.10.0;                                 !- Version Identifier

OS:BuildingStory,
  {79a62dff-33e9-4cf2-a37a-416f05b61951}, !- Handle
  Story 1,                                !- Name
  0,                                      !- Nominal Z Coordinate {m}
  4,                                      !- Nominal Floor to Floor Height {m}
  ,                                       !- Default Construction Set Name
  ,                                       !- Default Schedule Set Name
  ;                                       !- Group Rendering Name

OS:Space,
  {f1bdb831-15bb-457a-a09e-d8d9a8f1dca3}, !- Handle
  Story 1 West Perimeter Space,           !- Name
  ,                                       !- Space Type Name
  ,                                       !- Default Construction Set Name
  ,                                       !- Default Schedule Set Name
  -0,                                     !- Direction of Relative North {deg}
  0,                                      !- X Origin {m}
  0,                                      !- Y Origin {m}
  0,                                      !- Z Origin {m}
  {79a62dff-33e9-4cf2-a37a-416f05b61951}, !- Building Story Name
  {313b77ca-5f9e-4b6b-a751-bfb9f86a02b6}; !- Thermal Zone Name

OS:Surface,
  {47f2c691-4973-48df-a180-c7f36c7408c0}, !- Handle
  Surface 1,                              !- Name
  Floor,                                  !- Surface Type
  ,                                       !- Construction Name
  {f1bdb831-15bb-457a-a09e-d8d9a8f1dca3}, !- Space Name
  Ground,                                 !- Outside Boundary Condition
  ,                                       !- Outside Boundary Condition Object
  NoSun,                                  !- Sun Exposure
  NoWind,                                 !- Wind Exposure
  ,                                       !- View Factor to Ground
  ,                                       !- Number of Vertices
  0, 0, 0,                                !- X,Y,Z Vertex 1 {m}
  0, 7.74596669241483, 0,                 !- X,Y,Z Vertex 2 {m}
  3, 4.74596669241483, 0,                 !- X,Y,Z Vertex 3 {m}
  3, 3, 0;                                !- X,Y,Z Vertex 4 {m}

OS:Surface,
  {797e10fd-2935-4ad4-99df-17c028aeab81}, !- Handle
  Surface 2,                              !- Name
  Wall,                                   !- Surface Type
  ,                                       !- Construction Name
  {f1bdb831-15bb-457a-a09e-d8d9a8f1dca3}, !- Space Name
  Outdoors,                               !- Outside Boundary Condition
  ,                                       !- Outside Boundary Condition Object
  SunExposed,                             !- Sun Exposure
  WindExposed,                            !- Wind Exposure
  ,                                       !- View Factor to Ground
  ,                                       !- Number of Vertices
  0, 7.74596669241483, 4,                 !- X,Y,Z Vertex 1 {m}
  0, 7.74596669241483, 0,                 !- X,Y,Z Vertex 2 {m}
  0, 0, 0,                                !- X,Y,Z Vertex 3 {m}
  0, 0, 4;                                !- X,Y,Z Vertex 4 {m}

OS:Surface,
  {c3986ce2-ec07-4bbe-935f-21d15dfa458b}, !- Handle
  Surface 3,                              !- Name
  Wall,                                   !- Surface Type
  ,                                       !- Construction Name
  {f1bdb831-15bb-457a-a09e-d8d9a8f1dca3}, !- Space Name
  Surface,                                !- Outside Boundary Condition
  {3b1bf704-624f-4236-9a2b-d3a15cbf338d}, !- Outside Boundary Condition Object
  NoSun,                                  !- Sun Exposure
  NoWind,                                 !- Wind Exposure
  ,                                       !- View Factor to Ground
  ,                                       !- Number of Vertices
  3, 4.74596669241483, 4,                 !- X,Y,Z Vertex 1 {m}
  3, 4.74596669241483, 0,                 !- X,Y,Z Vertex 2 {m}
  0, 7.74596669241483, 0,                 !- X,Y,Z Vertex 3 {m}
  0, 7.74596669241483, 4;                 !- X,Y,Z Vertex 4 {m}

OS:Surface,
  {203fdc7e-9045-4409-b7a2-077f113299b9}, !- Handle
  Surface 4,                              !- Name
  Wall,                                   !- Surface Type
  ,                                       !- Construction Name
  {f1bdb831-15bb-457a-a09e-d8d9a8f1dca3}, !- Space Name
  Surface,                                !- Outside Boundary Condition
  {b5a0c2ef-6714-4492-be2e-0dcff31ef8bd}, !- Outside Boundary Condition Object
  NoSun,                                  !- Sun Exposure
  NoWind,                                 !- Wind Exposure
  ,                                       !- View Factor to Ground
  ,                                       !- Number of Vertices
  3, 3, 4,                                !- X,Y,Z Vertex 1 {m}
  3, 3, 0,                                !- X,Y,Z Vertex 2 {m}
  3, 4.74596669241483, 0,                 !- X,Y,Z Vertex 3 {m}
  3, 4.74596669241483, 4;                 !- X,Y,Z Vertex 4 {m}

OS:Surface,
  {0168a583-d741-45c0-bdfc-a2864bcb2130}, !- Handle
  Surface 5,                              !- Name
  Wall,                                   !- Surface Type
  ,                                       !- Construction Name
  {f1bdb831-15bb-457a-a09e-d8d9a8f1dca3}, !- Space Name
  Surface,                                !- Outside Boundary Condition
  {8792e8d2-5a47-4bc9-bc35-0ed68a43ed3f}, !- Outside Boundary Condition Object
  NoSun,                                  !- Sun Exposure
  NoWind,                                 !- Wind Exposure
  ,                                       !- View Factor to Ground
  ,                                       !- Number of Vertices
  0, 0, 4,                                !- X,Y,Z Vertex 1 {m}
  0, 0, 0,                                !- X,Y,Z Vertex 2 {m}
  3, 3, 0,                                !- X,Y,Z Vertex 3 {m}
  3, 3, 4;                                !- X,Y,Z Vertex 4 {m}

OS:Surface,
  {2fdd21ed-7564-4177-a386-b5e14f893a16}, !- Handle
  Surface 6,                              !- Name
  RoofCeiling,                            !- Surface Type
  ,                                       !- Construction Name
  {f1bdb831-15bb-457a-a09e-d8d9a8f1dca3}, !- Space Name
  Surface,                                !- Outside Boundary Condition
  {3db1ff83-3ed8-46b7-9e7e-be7cb3e0eeef}, !- Outside Boundary Condition Object
  NoSun,                                  !- Sun Exposure
  NoWind,                                 !- Wind Exposure
  ,                                       !- View Factor to Ground
  ,                                       !- Number of Vertices
  3, 3, 4,                                !- X,Y,Z Vertex 1 {m}
  3, 4.74596669241483, 4,                 !- X,Y,Z Vertex 2 {m}
  0, 7.74596669241483, 4,                 !- X,Y,Z Vertex 3 {m}
  0, 0, 4;                                !- X,Y,Z Vertex 4 {m}

OS:Space,
  {6dbbf7c1-5aa6-46d4-a833-754c2a9dbabf}, !- Handle
  Story 1 North Perimeter Space,          !- Name
  ,                                       !- Space Type Name
  ,                                       !- Default Construction Set Name
  ,                                       !- Default Schedule Set Name
  -0,                                     !- Direction of Relative North {deg}
  3,                                      !- X Origin {m}
  4.74596669241483,                       !- Y Origin {m}
  0,                                      !- Z Origin {m}
  {79a62dff-33e9-4cf2-a37a-416f05b61951}, !- Building Story Name
  {cb9df1b3-621b-4ab2-bd8b-7ee90e6d5933}; !- Thermal Zone Name

OS:Surface,
  {88d1ec30-85c0-4f80-9970-9ea98ba98e4b}, !- Handle
  Surface 7,                              !- Name
  Floor,                                  !- Surface Type
  ,                                       !- Construction Name
  {6dbbf7c1-5aa6-46d4-a833-754c2a9dbabf}, !- Space Name
  Ground,                                 !- Outside Boundary Condition
  ,                                       !- Outside Boundary Condition Object
  NoSun,                                  !- Sun Exposure
  NoWind,                                 !- Wind Exposure
  ,                                       !- View Factor to Ground
  ,                                       !- Number of Vertices
  -3, 3, 0,                               !- X,Y,Z Vertex 1 {m}
  4.74596669241483, 3, 0,                 !- X,Y,Z Vertex 2 {m}
  1.74596669241483, -4.44089209850063e-15, 0, !- X,Y,Z Vertex 3 {m}
  0, -4.44089209850063e-15, 0;            !- X,Y,Z Vertex 4 {m}

OS:Surface,
  {b50cca54-a061-4d23-b4f7-5b83e3466b18}, !- Handle
  Surface 8,                              !- Name
  Wall,                                   !- Surface Type
  ,                                       !- Construction Name
  {6dbbf7c1-5aa6-46d4-a833-754c2a9dbabf}, !- Space Name
  Outdoors,                               !- Outside Boundary Condition
  ,                                       !- Outside Boundary Condition Object
  SunExposed,                             !- Sun Exposure
  WindExposed,                            !- Wind Exposure
  ,                                       !- View Factor to Ground
  ,                                       !- Number of Vertices
  4.74596669241483, 3, 4,                 !- X,Y,Z Vertex 1 {m}
  4.74596669241483, 3, 0,                 !- X,Y,Z Vertex 2 {m}
  -3, 3, 0,                               !- X,Y,Z Vertex 3 {m}
  -3, 3, 4;                               !- X,Y,Z Vertex 4 {m}

OS:Surface,
  {d21b3a95-d463-4524-af9e-1592d96111cb}, !- Handle
  Surface 9,                              !- Name
  Wall,                                   !- Surface Type
  ,                                       !- Construction Name
  {6dbbf7c1-5aa6-46d4-a833-754c2a9dbabf}, !- Space Name
  Surface,                                !- Outside Boundary Condition
  {a2e8ae99-51b1-4637-9c7a-a7dc7360e53f}, !- Outside Boundary Condition Object
  NoSun,                                  !- Sun Exposure
  NoWind,                                 !- Wind Exposure
  ,                                       !- View Factor to Ground
  ,                                       !- Number of Vertices
  1.74596669241483, -4.44089209850063e-15, 4, !- X,Y,Z Vertex 1 {m}
  1.74596669241483, -4.44089209850063e-15, 0, !- X,Y,Z Vertex 2 {m}
  4.74596669241483, 3, 0,                 !- X,Y,Z Vertex 3 {m}
  4.74596669241483, 3, 4;                 !- X,Y,Z Vertex 4 {m}

OS:Surface,
  {e3bfae86-748d-4784-a89c-bb4e7e8a6bd6}, !- Handle
  Surface 10,                             !- Name
  Wall,                                   !- Surface Type
  ,                                       !- Construction Name
  {6dbbf7c1-5aa6-46d4-a833-754c2a9dbabf}, !- Space Name
  Surface,                                !- Outside Boundary Condition
  {8765c245-c2cb-48e3-b91b-b9c539f49fe1}, !- Outside Boundary Condition Object
  NoSun,                                  !- Sun Exposure
  NoWind,                                 !- Wind Exposure
  ,                                       !- View Factor to Ground
  ,                                       !- Number of Vertices
  0, -4.44089209850063e-15, 4,            !- X,Y,Z Vertex 1 {m}
  0, -4.44089209850063e-15, 0,            !- X,Y,Z Vertex 2 {m}
  1.74596669241483, -4.44089209850063e-15, 0, !- X,Y,Z Vertex 3 {m}
  1.74596669241483, -4.44089209850063e-15, 4; !- X,Y,Z Vertex 4 {m}

OS:Surface,
  {3b1bf704-624f-4236-9a2b-d3a15cbf338d}, !- Handle
  Surface 11,                             !- Name
  Wall,                                   !- Surface Type
  ,                                       !- Construction Name
  {6dbbf7c1-5aa6-46d4-a833-754c2a9dbabf}, !- Space Name
  Surface,                                !- Outside Boundary Condition
  {c3986ce2-ec07-4bbe-935f-21d15dfa458b}, !- Outside Boundary Condition Object
  NoSun,                                  !- Sun Exposure
  NoWind,                                 !- Wind Exposure
  ,                                       !- View Factor to Ground
  ,                                       !- Number of Vertices
  -3, 3, 4,                               !- X,Y,Z Vertex 1 {m}
  -3, 3, 0,                               !- X,Y,Z Vertex 2 {m}
  0, -4.44089209850063e-15, 0,            !- X,Y,Z Vertex 3 {m}
  0, -4.44089209850063e-15, 4;            !- X,Y,Z Vertex 4 {m}

OS:Surface,
  {a4073f3d-0381-4494-a1e7-5322ac8da7d6}, !- Handle
  Surface 12,                             !- Name
  RoofCeiling,                            !- Surface Type
  ,                                       !- Construction Name
  {6dbbf7c1-5aa6-46d4-a833-754c2a9dbabf}, !- Space Name
  Surface,                                !- Outside Boundary Condition
  {424d6a88-f6de-4d7a-8c5a-ba335525eca4}, !- Outside Boundary Condition Object
  NoSun,                                  !- Sun Exposure
  NoWind,                                 !- Wind Exposure
  ,                                       !- View Factor to Ground
  ,                                       !- Number of Vertices
  0, -4.44089209850063e-15, 4,            !- X,Y,Z Vertex 1 {m}
  1.74596669241483, -4.44089209850063e-15, 4, !- X,Y,Z Vertex 2 {m}
  4.74596669241483, 3, 4,                 !- X,Y,Z Vertex 3 {m}
  -3, 3, 4;                               !- X,Y,Z Vertex 4 {m}

OS:Space,
  {134ada45-0c69-4d32-9030-e9bf0d873628}, !- Handle
  Story 1 East Perimeter Space,           !- Name
  ,                                       !- Space Type Name
  ,                                       !- Default Construction Set Name
  ,                                       !- Default Schedule Set Name
  -0,                                     !- Direction of Relative North {deg}
  4.74596669241483,                       !- X Origin {m}
  3,                                      !- Y Origin {m}
  0,                                      !- Z Origin {m}
  {79a62dff-33e9-4cf2-a37a-416f05b61951}, !- Building Story Name
  {ef1048e0-29f1-4997-b140-814f0dc565ca}; !- Thermal Zone Name

OS:Surface,
  {29aa158d-0747-48d2-93c2-338fa8745c1d}, !- Handle
  Surface 13,                             !- Name
  Floor,                                  !- Surface Type
  ,                                       !- Construction Name
  {134ada45-0c69-4d32-9030-e9bf0d873628}, !- Space Name
  Ground,                                 !- Outside Boundary Condition
  ,                                       !- Outside Boundary Condition Object
  NoSun,                                  !- Sun Exposure
  NoWind,                                 !- Wind Exposure
  ,                                       !- View Factor to Ground
  ,                                       !- Number of Vertices
  3, 4.74596669241483, 0,                 !- X,Y,Z Vertex 1 {m}
  3, -3, 0,                               !- X,Y,Z Vertex 2 {m}
  -4.44089209850063e-15, 0, 0,            !- X,Y,Z Vertex 3 {m}
  -4.44089209850063e-15, 1.74596669241483, 0; !- X,Y,Z Vertex 4 {m}

OS:Surface,
  {3e3a4f90-db9f-4af9-8698-b794eac75fe7}, !- Handle
  Surface 14,                             !- Name
  Wall,                                   !- Surface Type
  ,                                       !- Construction Name
  {134ada45-0c69-4d32-9030-e9bf0d873628}, !- Space Name
  Outdoors,                               !- Outside Boundary Condition
  ,                                       !- Outside Boundary Condition Object
  SunExposed,                             !- Sun Exposure
  WindExposed,                            !- Wind Exposure
  ,                                       !- View Factor to Ground
  ,                                       !- Number of Vertices
  3, -3, 4,                               !- X,Y,Z Vertex 1 {m}
  3, -3, 0,                               !- X,Y,Z Vertex 2 {m}
  3, 4.74596669241483, 0,                 !- X,Y,Z Vertex 3 {m}
  3, 4.74596669241483, 4;                 !- X,Y,Z Vertex 4 {m}

OS:Surface,
  {55c97d11-ac1f-4647-bccf-e68eebc358a2}, !- Handle
  Surface 15,                             !- Name
  Wall,                                   !- Surface Type
  ,                                       !- Construction Name
  {134ada45-0c69-4d32-9030-e9bf0d873628}, !- Space Name
  Surface,                                !- Outside Boundary Condition
  {048260ac-088a-430e-bd12-8eb3c2825601}, !- Outside Boundary Condition Object
  NoSun,                                  !- Sun Exposure
  NoWind,                                 !- Wind Exposure
  ,                                       !- View Factor to Ground
  ,                                       !- Number of Vertices
  -4.44089209850063e-15, 0, 4,            !- X,Y,Z Vertex 1 {m}
  -4.44089209850063e-15, 0, 0,            !- X,Y,Z Vertex 2 {m}
  3, -3, 0,                               !- X,Y,Z Vertex 3 {m}
  3, -3, 4;                               !- X,Y,Z Vertex 4 {m}

OS:Surface,
  {be6ab758-2cc6-48b9-af53-f4898b628fbd}, !- Handle
  Surface 16,                             !- Name
  Wall,                                   !- Surface Type
  ,                                       !- Construction Name
  {134ada45-0c69-4d32-9030-e9bf0d873628}, !- Space Name
  Surface,                                !- Outside Boundary Condition
  {49cc0130-e2ef-4038-b7fc-55f2a3100053}, !- Outside Boundary Condition Object
  NoSun,                                  !- Sun Exposure
  NoWind,                                 !- Wind Exposure
  ,                                       !- View Factor to Ground
  ,                                       !- Number of Vertices
  -4.44089209850063e-15, 1.74596669241483, 4, !- X,Y,Z Vertex 1 {m}
  -4.44089209850063e-15, 1.74596669241483, 0, !- X,Y,Z Vertex 2 {m}
  -4.44089209850063e-15, 0, 0,            !- X,Y,Z Vertex 3 {m}
  -4.44089209850063e-15, 0, 4;            !- X,Y,Z Vertex 4 {m}

OS:Surface,
  {a2e8ae99-51b1-4637-9c7a-a7dc7360e53f}, !- Handle
  Surface 17,                             !- Name
  Wall,                                   !- Surface Type
  ,                                       !- Construction Name
  {134ada45-0c69-4d32-9030-e9bf0d873628}, !- Space Name
  Surface,                                !- Outside Boundary Condition
  {d21b3a95-d463-4524-af9e-1592d96111cb}, !- Outside Boundary Condition Object
  NoSun,                                  !- Sun Exposure
  NoWind,                                 !- Wind Exposure
  ,                                       !- View Factor to Ground
  ,                                       !- Number of Vertices
  3, 4.74596669241483, 4,                 !- X,Y,Z Vertex 1 {m}
  3, 4.74596669241483, 0,                 !- X,Y,Z Vertex 2 {m}
  -4.44089209850063e-15, 1.74596669241483, 0, !- X,Y,Z Vertex 3 {m}
  -4.44089209850063e-15, 1.74596669241483, 4; !- X,Y,Z Vertex 4 {m}

OS:Surface,
  {d9f483f9-bafc-4f62-9600-3ad8458015e6}, !- Handle
  Surface 18,                             !- Name
  RoofCeiling,                            !- Surface Type
  ,                                       !- Construction Name
  {134ada45-0c69-4d32-9030-e9bf0d873628}, !- Space Name
  Surface,                                !- Outside Boundary Condition
  {3e218fa7-f9af-4dbb-8ae4-37c8e1a8fb2b}, !- Outside Boundary Condition Object
  NoSun,                                  !- Sun Exposure
  NoWind,                                 !- Wind Exposure
  ,                                       !- View Factor to Ground
  ,                                       !- Number of Vertices
  -4.44089209850063e-15, 1.74596669241483, 4, !- X,Y,Z Vertex 1 {m}
  -4.44089209850063e-15, 0, 4,            !- X,Y,Z Vertex 2 {m}
  3, -3, 4,                               !- X,Y,Z Vertex 3 {m}
  3, 4.74596669241483, 4;                 !- X,Y,Z Vertex 4 {m}

OS:Space,
  {e4a49035-981e-41ba-a96a-eb8632094fee}, !- Handle
  Story 1 South Perimeter Space,          !- Name
  ,                                       !- Space Type Name
  ,                                       !- Default Construction Set Name
  ,                                       !- Default Schedule Set Name
  -0,                                     !- Direction of Relative North {deg}
  0,                                      !- X Origin {m}
  0,                                      !- Y Origin {m}
  0,                                      !- Z Origin {m}
  {79a62dff-33e9-4cf2-a37a-416f05b61951}, !- Building Story Name
  {c3b16990-cfb6-4137-8e12-17ce1ccf28a0}; !- Thermal Zone Name

OS:Surface,
  {e3c2cc1f-b826-4164-80d2-ba6864b1bac2}, !- Handle
  Surface 19,                             !- Name
  Floor,                                  !- Surface Type
  ,                                       !- Construction Name
  {e4a49035-981e-41ba-a96a-eb8632094fee}, !- Space Name
  Ground,                                 !- Outside Boundary Condition
  ,                                       !- Outside Boundary Condition Object
  NoSun,                                  !- Sun Exposure
  NoWind,                                 !- Wind Exposure
  ,                                       !- View Factor to Ground
  ,                                       !- Number of Vertices
  7.74596669241483, 0, 0,                 !- X,Y,Z Vertex 1 {m}
  0, 0, 0,                                !- X,Y,Z Vertex 2 {m}
  3, 3, 0,                                !- X,Y,Z Vertex 3 {m}
  4.74596669241483, 3, 0;                 !- X,Y,Z Vertex 4 {m}

OS:Surface,
  {d43a0b9b-50e0-4622-af01-23d7450e4ec5}, !- Handle
  Surface 20,                             !- Name
  Wall,                                   !- Surface Type
  ,                                       !- Construction Name
  {e4a49035-981e-41ba-a96a-eb8632094fee}, !- Space Name
  Outdoors,                               !- Outside Boundary Condition
  ,                                       !- Outside Boundary Condition Object
  SunExposed,                             !- Sun Exposure
  WindExposed,                            !- Wind Exposure
  ,                                       !- View Factor to Ground
  ,                                       !- Number of Vertices
  0, 0, 4,                                !- X,Y,Z Vertex 1 {m}
  0, 0, 0,                                !- X,Y,Z Vertex 2 {m}
  7.74596669241483, 0, 0,                 !- X,Y,Z Vertex 3 {m}
  7.74596669241483, 0, 4;                 !- X,Y,Z Vertex 4 {m}

OS:Surface,
  {8792e8d2-5a47-4bc9-bc35-0ed68a43ed3f}, !- Handle
  Surface 21,                             !- Name
  Wall,                                   !- Surface Type
  ,                                       !- Construction Name
  {e4a49035-981e-41ba-a96a-eb8632094fee}, !- Space Name
  Surface,                                !- Outside Boundary Condition
  {0168a583-d741-45c0-bdfc-a2864bcb2130}, !- Outside Boundary Condition Object
  NoSun,                                  !- Sun Exposure
  NoWind,                                 !- Wind Exposure
  ,                                       !- View Factor to Ground
  ,                                       !- Number of Vertices
  3, 3, 4,                                !- X,Y,Z Vertex 1 {m}
  3, 3, 0,                                !- X,Y,Z Vertex 2 {m}
  0, 0, 0,                                !- X,Y,Z Vertex 3 {m}
  0, 0, 4;                                !- X,Y,Z Vertex 4 {m}

OS:Surface,
  {31360b7c-d165-411a-ba81-89820b5408bd}, !- Handle
  Surface 22,                             !- Name
  Wall,                                   !- Surface Type
  ,                                       !- Construction Name
  {e4a49035-981e-41ba-a96a-eb8632094fee}, !- Space Name
  Surface,                                !- Outside Boundary Condition
  {928c3fdd-0cad-4921-aac0-e0ade0d990b1}, !- Outside Boundary Condition Object
  NoSun,                                  !- Sun Exposure
  NoWind,                                 !- Wind Exposure
  ,                                       !- View Factor to Ground
  ,                                       !- Number of Vertices
  4.74596669241483, 3, 4,                 !- X,Y,Z Vertex 1 {m}
  4.74596669241483, 3, 0,                 !- X,Y,Z Vertex 2 {m}
  3, 3, 0,                                !- X,Y,Z Vertex 3 {m}
  3, 3, 4;                                !- X,Y,Z Vertex 4 {m}

OS:Surface,
  {048260ac-088a-430e-bd12-8eb3c2825601}, !- Handle
  Surface 23,                             !- Name
  Wall,                                   !- Surface Type
  ,                                       !- Construction Name
  {e4a49035-981e-41ba-a96a-eb8632094fee}, !- Space Name
  Surface,                                !- Outside Boundary Condition
  {55c97d11-ac1f-4647-bccf-e68eebc358a2}, !- Outside Boundary Condition Object
  NoSun,                                  !- Sun Exposure
  NoWind,                                 !- Wind Exposure
  ,                                       !- View Factor to Ground
  ,                                       !- Number of Vertices
  7.74596669241483, 0, 4,                 !- X,Y,Z Vertex 1 {m}
  7.74596669241483, 0, 0,                 !- X,Y,Z Vertex 2 {m}
  4.74596669241483, 3, 0,                 !- X,Y,Z Vertex 3 {m}
  4.74596669241483, 3, 4;                 !- X,Y,Z Vertex 4 {m}

OS:Surface,
  {0c0510a0-2e81-4e05-9063-984b21db9e3a}, !- Handle
  Surface 24,                             !- Name
  RoofCeiling,                            !- Surface Type
  ,                                       !- Construction Name
  {e4a49035-981e-41ba-a96a-eb8632094fee}, !- Space Name
  Surface,                                !- Outside Boundary Condition
  {1e985381-4ae7-4345-9d26-53c216c36e58}, !- Outside Boundary Condition Object
  NoSun,                                  !- Sun Exposure
  NoWind,                                 !- Wind Exposure
  ,                                       !- View Factor to Ground
  ,                                       !- Number of Vertices
  4.74596669241483, 3, 4,                 !- X,Y,Z Vertex 1 {m}
  3, 3, 4,                                !- X,Y,Z Vertex 2 {m}
  0, 0, 4,                                !- X,Y,Z Vertex 3 {m}
  7.74596669241483, 0, 4;                 !- X,Y,Z Vertex 4 {m}

OS:Space,
  {1204c6d5-73ac-43e5-961c-1713df7dc587}, !- Handle
  Story 1 Core Space,                     !- Name
  ,                                       !- Space Type Name
  ,                                       !- Default Construction Set Name
  ,                                       !- Default Schedule Set Name
  -0,                                     !- Direction of Relative North {deg}
  3,                                      !- X Origin {m}
  3,                                      !- Y Origin {m}
  0,                                      !- Z Origin {m}
  {79a62dff-33e9-4cf2-a37a-416f05b61951}, !- Building Story Name
  {123040b4-faf6-463c-860b-fe95bc12c4e5}; !- Thermal Zone Name

OS:Surface,
  {e5110f93-3d38-4880-bec1-ce3790eb4ef8}, !- Handle
  Surface 25,                             !- Name
  Floor,                                  !- Surface Type
  ,                                       !- Construction Name
  {1204c6d5-73ac-43e5-961c-1713df7dc587}, !- Space Name
  Ground,                                 !- Outside Boundary Condition
  ,                                       !- Outside Boundary Condition Object
  NoSun,                                  !- Sun Exposure
  NoWind,                                 !- Wind Exposure
  ,                                       !- View Factor to Ground
  ,                                       !- Number of Vertices
  0, 0, 0,                                !- X,Y,Z Vertex 1 {m}
  0, 1.74596669241483, 0,                 !- X,Y,Z Vertex 2 {m}
  1.74596669241483, 1.74596669241483, 0,  !- X,Y,Z Vertex 3 {m}
  1.74596669241483, 0, 0;                 !- X,Y,Z Vertex 4 {m}

OS:Surface,
  {b5a0c2ef-6714-4492-be2e-0dcff31ef8bd}, !- Handle
  Surface 26,                             !- Name
  Wall,                                   !- Surface Type
  ,                                       !- Construction Name
  {1204c6d5-73ac-43e5-961c-1713df7dc587}, !- Space Name
  Surface,                                !- Outside Boundary Condition
  {203fdc7e-9045-4409-b7a2-077f113299b9}, !- Outside Boundary Condition Object
  NoSun,                                  !- Sun Exposure
  NoWind,                                 !- Wind Exposure
  ,                                       !- View Factor to Ground
  ,                                       !- Number of Vertices
  0, 1.74596669241483, 4,                 !- X,Y,Z Vertex 1 {m}
  0, 1.74596669241483, 0,                 !- X,Y,Z Vertex 2 {m}
  0, 0, 0,                                !- X,Y,Z Vertex 3 {m}
  0, 0, 4;                                !- X,Y,Z Vertex 4 {m}

OS:Surface,
  {8765c245-c2cb-48e3-b91b-b9c539f49fe1}, !- Handle
  Surface 27,                             !- Name
  Wall,                                   !- Surface Type
  ,                                       !- Construction Name
  {1204c6d5-73ac-43e5-961c-1713df7dc587}, !- Space Name
  Surface,                                !- Outside Boundary Condition
  {e3bfae86-748d-4784-a89c-bb4e7e8a6bd6}, !- Outside Boundary Condition Object
  NoSun,                                  !- Sun Exposure
  NoWind,                                 !- Wind Exposure
  ,                                       !- View Factor to Ground
  ,                                       !- Number of Vertices
  1.74596669241483, 1.74596669241483, 4,  !- X,Y,Z Vertex 1 {m}
  1.74596669241483, 1.74596669241483, 0,  !- X,Y,Z Vertex 2 {m}
  0, 1.74596669241483, 0,                 !- X,Y,Z Vertex 3 {m}
  0, 1.74596669241483, 4;                 !- X,Y,Z Vertex 4 {m}

OS:Surface,
  {49cc0130-e2ef-4038-b7fc-55f2a3100053}, !- Handle
  Surface 28,                             !- Name
  Wall,                                   !- Surface Type
  ,                                       !- Construction Name