
OS:Version,
  {af898c1e-1ab8-4435-b29b-a7d44d57ad15}, !- Handle
  0.10.0;                                 !- Version Identifier

OS:BuildingStory,
  {953302b5-1b9c-4b91-b85c-7a016dc79725}, !- Handle
  Story 1,                                !- Name
  0,                                      !- Nominal Z Coordinate {m}
  4,                                      !- Nominal Floor to Floor Height {m}
  ,                                       !- Default Construction Set Name
  ,                                       !- Default Schedule Set Name
  ;                                       !- Group Rendering Name

OS:Space,
  {8775fa8c-1711-49ec-bb6a-b9a6313a55b5}, !- Handle
  Story 1 West Perimeter Space,           !- Name
  ,                                       !- Space Type Name
  ,                                       !- Default Construction Set Name
  ,                                       !- Default Schedule Set Name
  -0,                                     !- Direction of Relative North {deg}
  0,                                      !- X Origin {m}
  0,                                      !- Y Origin {m}
  0,                                      !- Z Origin {m}
  {953302b5-1b9c-4b91-b85c-7a016dc79725}, !- Building Story Name
  {7eea158c-0d54-4fcf-801b-9e9fc3aa45d3}; !- Thermal Zone Name

OS:Surface,
  {68acbcf2-d56d-4da6-9b1b-dcf1f2950ed7}, !- Handle
  Surface 1,                              !- Name
  Floor,                                  !- Surface Type
  ,                                       !- Construction Name
  {8775fa8c-1711-49ec-bb6a-b9a6313a55b5}, !- Space Name
  Ground,                                 !- Outside Boundary Condition
  ,                                       !- Outside Boundary Condition Object
  NoSun,                                  !- Sun Exposure
  NoWind,                                 !- Wind Exposure
  ,                                       !- View Factor to Ground
  ,                                       !- Number of Vertices
  0, 0, 0,                                !- X,Y,Z Vertex 1 {m}
  0, 6.45497224367903, 0,                 !- X,Y,Z Vertex 2 {m}
  3, 3.45497224367903, 0,                 !- X,Y,Z Vertex 3 {m}
  3, 3, 0;                                !- X,Y,Z Vertex 4 {m}

OS:Surface,
  {24c7d178-37ff-4204-953f-4ed8c2095236}, !- Handle
  Surface 2,                              !- Name
  Wall,                                   !- Surface Type
  ,                                       !- Construction Name
  {8775fa8c-1711-49ec-bb6a-b9a6313a55b5}, !- Space Name
  Outdoors,                               !- Outside Boundary Condition
  ,                                       !- Outside Boundary Condition Object
  SunExposed,                             !- Sun Exposure
  WindExposed,                            !- Wind Exposure
  ,                                       !- View Factor to Ground
  ,                                       !- Number of Vertices
  0, 6.45497224367903, 4,                 !- X,Y,Z Vertex 1 {m}
  0, 6.45497224367903, 0,                 !- X,Y,Z Vertex 2 {m}
  0, 0, 0,                                !- X,Y,Z Vertex 3 {m}
  0, 0, 4;                                !- X,Y,Z Vertex 4 {m}

OS:Surface,
  {824fec4c-2557-420e-b927-369861d3925c}, !- Handle
  Surface 3,                              !- Name
  Wall,                                   !- Surface Type
  ,                                       !- Construction Name
  {8775fa8c-1711-49ec-bb6a-b9a6313a55b5}, !- Space Name
  Surface,                                !- Outside Boundary Condition
  {af4a607b-3ac6-4c58-b044-4db355624772}, !- Outside Boundary Condition Object
  NoSun,                                  !- Sun Exposure
  NoWind,                                 !- Wind Exposure
  ,                                       !- View Factor to Ground
  ,                                       !- Number of Vertices
  3, 3.45497224367903, 4,                 !- X,Y,Z Vertex 1 {m}
  3, 3.45497224367903, 0,                 !- X,Y,Z Vertex 2 {m}
  0, 6.45497224367903, 0,                 !- X,Y,Z Vertex 3 {m}
  0, 6.45497224367903, 4;                 !- X,Y,Z Vertex 4 {m}

OS:Surface,
  {02353525-4ec6-4578-89fd-c14aa7297262}, !- Handle
  Surface 4,                              !- Name
  Wall,                                   !- Surface Type
  ,                                       !- Construction Name
  {8775fa8c-1711-49ec-bb6a-b9a6313a55b5}, !- Space Name
  Surface,                                !- Outside Boundary Condition
  {1e8e8022-4a4b-4ea5-af6b-fbba2c1727ef}, !- Outside Boundary Condition Object
  NoSun,                                  !- Sun Exposure
  NoWind,                                 !- Wind Exposure
  ,                                       !- View Factor to Ground
  ,                                       !- Number of Vertices
  3, 3, 4,                                !- X,Y,Z Vertex 1 {m}
  3, 3, 0,                                !- X,Y,Z Vertex 2 {m}
  3, 3.45497224367903, 0,                 !- X,Y,Z Vertex 3 {m}
  3, 3.45497224367903, 4;                 !- X,Y,Z Vertex 4 {m}

OS:Surface,
  {f7af621c-bd45-47ab-b8a7-39e5d1142a9c}, !- Handle
  Surface 5,                              !- Name
  Wall,                                   !- Surface Type
  ,                                       !- Construction Name
  {8775fa8c-1711-49ec-bb6a-b9a6313a55b5}, !- Space Name
  Surface,                                !- Outside Boundary Condition
  {d7b5b01b-c738-4e62-bab0-d460b16f695a}, !- Outside Boundary Condition Object
  NoSun,                                  !- Sun Exposure
  NoWind,                                 !- Wind Exposure
  ,                                       !- View Factor to Ground
  ,                                       !- Number of Vertices
  0, 0, 4,                                !- X,Y,Z Vertex 1 {m}
  0, 0, 0,                                !- X,Y,Z Vertex 2 {m}
  3, 3, 0,                                !- X,Y,Z Vertex 3 {m}
  3, 3, 4;                                !- X,Y,Z Vertex 4 {m}

OS:Surface,
  {2d9a505b-a272-4683-8ffe-4cd848b19d6c}, !- Handle
  Surface 6,                              !- Name
  RoofCeiling,                            !- Surface Type
  ,                                       !- Construction Name
  {8775fa8c-1711-49ec-bb6a-b9a6313a55b5}, !- Space Name
  Surface,                                !- Outside Boundary Condition
  {4a0961c1-0607-4e26-a6b4-29deac943e92}, !- Outside Boundary Condition Object
  NoSun,                                  !- Sun Exposure
  NoWind,                                 !- Wind Exposure
  ,                                       !- View Factor to Ground
  ,                                       !- Number of Vertices
  3, 3, 4,                                !- X,Y,Z Vertex 1 {m}
  3, 3.45497224367903, 4,                 !- X,Y,Z Vertex 2 {m}
  0, 6.45497224367903, 4,                 !- X,Y,Z Vertex 3 {m}
  0, 0, 4;                                !- X,Y,Z Vertex 4 {m}

OS:Space,
  {da9eb074-b2dd-4db4-ac57-ab2201c2970f}, !- Handle
  Story 1 North Perimeter Space,          !- Name
  ,                                       !- Space Type Name
  ,                                       !- Default Construction Set Name
  ,                                       !- Default Schedule Set Name
  -0,                                     !- Direction of Relative North {deg}
  3,                                      !- X Origin {m}
  3.45497224367903,                       !- Y Origin {m}
  0,                                      !- Z Origin {m}
  {953302b5-1b9c-4b91-b85c-7a016dc79725}, !- Building Story Name
  {770136be-8c3a-41d9-8510-aaf37ec530de}; !- Thermal Zone Name

OS:Surface,
  {15890e0d-edbb-419f-b80d-153e324bb460}, !- Handle
  Surface 7,                              !- Name
  Floor,                                  !- Surface Type
  ,                                       !- Construction Name
  {da9eb074-b2dd-4db4-ac57-ab2201c2970f}, !- Space Name
  Ground,                                 !- Outside Boundary Condition
  ,                                       !- Outside Boundary Condition Object
  NoSun,                                  !- Sun Exposure
  NoWind,                                 !- Wind Exposure
  ,                                       !- View Factor to Ground
  ,                                       !- Number of Vertices
  -3, 3, 0,                               !- X,Y,Z Vertex 1 {m}
  3.45497224367903, 3, 0,                 !- X,Y,Z Vertex 2 {m}
  0.45497224367903, 2.22044604925031e-15, 0, !- X,Y,Z Vertex 3 {m}
  0, 2.22044604925031e-15, 0;             !- X,Y,Z Vertex 4 {m}

OS:Surface,
  {862d8fbd-4619-4b58-8a4b-4e96fe7ba918}, !- Handle
  Surface 8,                              !- Name
  Wall,                                   !- Surface Type
  ,                                       !- Construction Name
  {da9eb074-b2dd-4db4-ac57-ab2201c2970f}, !- Space Name
  Outdoors,                               !- Outside Boundary Condition
  ,                                       !- Outside Boundary Condition Object
  SunExposed,                             !- Sun Exposure
  WindExposed,                            !- Wind Exposure
  ,                                       !- View Factor to Ground
  ,                                       !- Number of Vertices
  3.45497224367903, 3, 4,                 !- X,Y,Z Vertex 1 {m}
  3.45497224367903, 3, 0,                 !- X,Y,Z Vertex 2 {m}
  -3, 3, 0,                               !- X,Y,Z Vertex 3 {m}
  -3, 3, 4;                               !- X,Y,Z Vertex 4 {m}

OS:Surface,
  {756ea222-d5b2-4e43-b2e7-1180b9b063d0}, !- Handle
  Surface 9,                              !- Name
  Wall,                                   !- Surface Type
  ,                                       !- Construction Name
  {da9eb074-b2dd-4db4-ac57-ab2201c2970f}, !- Space Name
  Surface,                                !- Outside Boundary Condition
  {14807dc4-beb9-4055-a076-635d7b03447f}, !- Outside Boundary Condition Object
  NoSun,                                  !- Sun Exposure
  NoWind,                                 !- Wind Exposure
  ,                                       !- View Factor to Ground
  ,                                       !- Number of Vertices
  0.45497224367903, 2.22044604925031e-15, 4, !- X,Y,Z Vertex 1 {m}
  0.45497224367903, 2.22044604925031e-15, 0, !- X,Y,Z Vertex 2 {m}
  3.45497224367903, 3, 0,                 !- X,Y,Z Vertex 3 {m}
  3.45497224367903, 3, 4;                 !- X,Y,Z Vertex 4 {m}

OS:Surface,
  {02129a1f-aa9c-445d-8714-3f491c8a162d}, !- Handle
  Surface 10,                             !- Name
  Wall,                                   !- Surface Type
  ,                                       !- Construction Name
  {da9eb074-b2dd-4db4-ac57-ab2201c2970f}, !- Space Name
  Surface,                                !- Outside Boundary Condition
  {bca9e56a-e0b1-4837-b6f5-426b95bda040}, !- Outside Boundary Condition Object
  NoSun,                                  !- Sun Exposure
  NoWind,                                 !- Wind Exposure
  ,                                       !- View Factor to Ground
  ,                                       !- Number of Vertices
  0, 2.22044604925031e-15, 4,             !- X,Y,Z Vertex 1 {m}
  0, 2.22044604925031e-15, 0,             !- X,Y,Z Vertex 2 {m}
  0.45497224367903, 2.22044604925031e-15, 0, !- X,Y,Z Vertex 3 {m}
  0.45497224367903, 2.22044604925031e-15, 4; !- X,Y,Z Vertex 4 {m}

OS:Surface,
  {af4a607b-3ac6-4c58-b044-4db355624772}, !- Handle
  Surface 11,                             !- Name
  Wall,                                   !- Surface Type
  ,                                       !- Construction Name
  {da9eb074-b2dd-4db4-ac57-ab2201c2970f}, !- Space Name
  Surface,                                !- Outside Boundary Condition
  {824fec4c-2557-420e-b927-369861d3925c}, !- Outside Boundary Condition Object
  NoSun,                                  !- Sun Exposure
  NoWind,                                 !- Wind Exposure
  ,                                       !- View Factor to Ground
  ,                                       !- Number of Vertices
  -3, 3, 4,                               !- X,Y,Z Vertex 1 {m}
  -3, 3, 0,                               !- X,Y,Z Vertex 2 {m}
  0, 2.22044604925031e-15, 0,             !- X,Y,Z Vertex 3 {m}
  0, 2.22044604925031e-15, 4;             !- X,Y,Z Vertex 4 {m}

OS:Surface,
  {86fbd16e-b13f-46c2-ac22-f433e4a12eeb}, !- Handle
  Surface 12,                             !- Name
  RoofCeiling,                            !- Surface Type
  ,                                       !- Construction Name
  {da9eb074-b2dd-4db4-ac57-ab2201c2970f}, !- Space Name
  Surface,                                !- Outside Boundary Condition
  {691095a3-496b-4b15-bf1b-b4f0c2595f41}, !- Outside Boundary Condition Object
  NoSun,                                  !- Sun Exposure
  NoWind,                                 !- Wind Exposure
  ,                                       !- View Factor to Ground
  ,                                       !- Number of Vertices
  0, 2.22044604925031e-15, 4,             !- X,Y,Z Vertex 1 {m}
  0.45497224367903, 2.22044604925031e-15, 4, !- X,Y,Z Vertex 2 {m}
  3.45497224367903, 3, 4,                 !- X,Y,Z Vertex 3 {m}
  -3, 3, 4;                               !- X,Y,Z Vertex 4 {m}

OS:Space,
  {9992c2ba-d5e4-4053-8108-c579911718a6}, !- Handle
  Story 1 East Perimeter Space,           !- Name
  ,                                       !- Space Type Name
  ,                                       !- Default Construction Set Name
  ,                                       !- Default Schedule Set Name
  -0,                                     !- Direction of Relative North {deg}
  3.45497224367903,                       !- X Origin {m}
  3,                                      !- Y Origin {m}
  0,                                      !- Z Origin {m}
  {953302b5-1b9c-4b91-b85c-7a016dc79725}, !- Building Story Name
  {015191f8-728c-45c0-8d2d-f24c8de8425b}; !- Thermal Zone Name

OS:Surface,
  {565fbf87-a2c8-4a75-a009-abb6e3efa373}, !- Handle
  Surface 13,                             !- Name
  Floor,                                  !- Surface Type
  ,                                       !- Construction Name
  {9992c2ba-d5e4-4053-8108-c579911718a6}, !- Space Name
  Ground,                                 !- Outside Boundary Condition
  ,                                       !- Outside Boundary Condition Object
  NoSun,                                  !- Sun Exposure
  NoWind,                                 !- Wind Exposure
  ,                                       !- View Factor to Ground
  ,                                       !- Number of Vertices
  3, 3.45497224367903, 0,                 !- X,Y,Z Vertex 1 {m}
  3, -3, 0,                               !- X,Y,Z Vertex 2 {m}
  2.22044604925031e-15, 0, 0,             !- X,Y,Z Vertex 3 {m}
  2.22044604925031e-15, 0.45497224367903, 0; !- X,Y,Z Vertex 4 {m}

OS:Surface,
  {99946e75-f314-4da7-a31f-88ede229b1ac}, !- Handle
  Surface 14,                             !- Name
  Wall,                                   !- Surface Type
  ,                                       !- Construction Name
  {9992c2ba-d5e4-4053-8108-c579911718a6}, !- Space Name
  Outdoors,                               !- Outside Boundary Condition
  ,                                       !- Outside Boundary Condition Object
  SunExposed,                             !- Sun Exposure
  WindExposed,                            !- Wind Exposure
  ,                                       !- View Factor to Ground
  ,                                       !- Number of Vertices
  3, -3, 4,                               !- X,Y,Z Vertex 1 {m}
  3, -3, 0,                               !- X,Y,Z Vertex 2 {m}
  3, 3.45497224367903, 0,                 !- X,Y,Z Vertex 3 {m}
  3, 3.45497224367903, 4;                 !- X,Y,Z Vertex 4 {m}

OS:Surface,
  {e464dcc7-cee4-4b2e-b625-1b0a1b83d66a}, !- Handle
  Surface 15,                             !- Name
  Wall,                                   !- Surface Type
  ,                                       !- Construction Name
  {9992c2ba-d5e4-4053-8108-c579911718a6}, !- Space Name
  Surface,                                !- Outside Boundary Condition
  {2118ff9e-0b87-4dd3-8684-ad292ba9c56b}, !- Outside Boundary Condition Object
  NoSun,                                  !- Sun Exposure
  NoWind,                                 !- Wind Exposure
  ,                                       !- View Factor to Ground
  ,                                       !- Number of Vertices
  2.22044604925031e-15, 0, 4,             !- X,Y,Z Vertex 1 {m}
  2.22044604925031e-15, 0, 0,             !- X,Y,Z Vertex 2 {m}
  3, -3, 0,                               !- X,Y,Z Vertex 3 {m}
  3, -3, 4;                               !- X,Y,Z Vertex 4 {m}

OS:Surface,
  {0c7d6357-e103-4c4e-874a-dbf2dac2d474}, !- Handle
  Surface 16,                             !- Name
  Wall,                                   !- Surface Type
  ,                                       !- Construction Name
  {9992c2ba-d5e4-4053-8108-c579911718a6}, !- Space Name
  Surface,                                !- Outside Boundary Condition
  {3cc491fb-f30a-4195-9485-e325d7cc3549}, !- Outside Boundary Condition Object
  NoSun,                                  !- Sun Exposure
  NoWind,                                 !- Wind Exposure
  ,                                       !- View Factor to Ground
  ,                                       !- Number of Vertices
  2.22044604925031e-15, 0.45497224367903, 4, !- X,Y,Z Vertex 1 {m}
  2.22044604925031e-15, 0.45497224367903, 0, !- X,Y,Z Vertex 2 {m}
  2.22044604925031e-15, 0, 0,             !- X,Y,Z Vertex 3 {m}
  2.22044604925031e-15, 0, 4;             !- X,Y,Z Vertex 4 {m}

OS:Surface,
  {14807dc4-beb9-4055-a076-635d7b03447f}, !- Handle
  Surface 17,                             !- Name
  Wall,                                   !- Surface Type
  ,                                       !- Construction Name
  {9992c2ba-d5e4-4053-8108-c579911718a6}, !- Space Name
  Surface,                                !- Outside Boundary Condition
  {756ea222-d5b2-4e43-b2e7-1180b9b063d0}, !- Outside Boundary Condition Object
  NoSun,                                  !- Sun Exposure
  NoWind,                                 !- Wind Exposure
  ,                                       !- View Factor to Ground
  ,                                       !- Number of Vertices
  3, 3.45497224367903, 4,                 !- X,Y,Z Vertex 1 {m}
  3, 3.45497224367903, 0,                 !- X,Y,Z Vertex 2 {m}
  2.22044604925031e-15, 0.45497224367903, 0, !- X,Y,Z Vertex 3 {m}
  2.22044604925031e-15, 0.45497224367903, 4; !- X,Y,Z Vertex 4 {m}

OS:Surface,
  {6b1e41bc-1a9b-4065-ad5b-709922f893eb}, !- Handle
  Surface 18,                             !- Name
  RoofCeiling,                            !- Surface Type
  ,                                       !- Construction Name
  {9992c2ba-d5e4-4053-8108-c579911718a6}, !- Space Name
  Surface,                                !- Outside Boundary Condition
  {19c058c2-0492-4abe-a496-42b19f38ad46}, !- Outside Boundary Condition Object
  NoSun,                                  !- Sun Exposure
  NoWind,                                 !- Wind Exposure
  ,                                       !- View Factor to Ground
  ,                                       !- Number of Vertices
  2.22044604925031e-15, 0.45497224367903, 4, !- X,Y,Z Vertex 1 {m}
  2.22044604925031e-15, 0, 4,             !- X,Y,Z Vertex 2 {m}
  3, -3, 4,                               !- X,Y,Z Vertex 3 {m}
  3, 3.45497224367903, 4;                 !- X,Y,Z Vertex 4 {m}

OS:Space,
  {c86e11de-3d50-4135-9820-af7e95975c8f}, !- Handle
  Story 1 South Perimeter Space,          !- Name
  ,                                       !- Space Type Name
  ,                                       !- Default Construction Set Name
  ,                                       !- Default Schedule Set Name
  -0,                                     !- Direction of Relative North {deg}
  0,                                      !- X Origin {m}
  0,                                      !- Y Origin {m}
  0,                                      !- Z Origin {m}
  {953302b5-1b9c-4b91-b85c-7a016dc79725}, !- Building Story Name
  {15534165-937c-4f41-b71b-a0cd75bc837c}; !- Thermal Zone Name

OS:Surface,
  {8122fed1-b0f6-4139-9b7d-1a780166ec70}, !- Handle
  Surface 19,                             !- Name
  Floor,                                  !- Surface Type
  ,                                       !- Construction Name
  {c86e11de-3d50-4135-9820-af7e95975c8f}, !- Space Name
  Ground,                                 !- Outside Boundary Condition
  ,                                       !- Outside Boundary Condition Object
  NoSun,                                  !- Sun Exposure
  NoWind,                                 !- Wind Exposure
  ,                                       !- View Factor to Ground
  ,                                       !- Number of Vertices
  6.45497224367903, 0, 0,                 !- X,Y,Z Vertex 1 {m}
  0, 0, 0,                                !- X,Y,Z Vertex 2 {m}
  3, 3, 0,                                !- X,Y,Z Vertex 3 {m}
  3.45497224367903, 3, 0;                 !- X,Y,Z Vertex 4 {m}

OS:Surface,
  {a807f88c-a0db-43d0-909f-2b0bcea7b51d}, !- Handle
  Surface 20,                             !- Name
  Wall,                                   !- Surface Type
  ,                                       !- Construction Name
  {c86e11de-3d50-4135-9820-af7e95975c8f}, !- Space Name
  Outdoors,                               !- Outside Boundary Condition
  ,                                       !- Outside Boundary Condition Object
  SunExposed,                             !- Sun Exposure
  WindExposed,                            !- Wind Exposure
  ,                                       !- View Factor to Ground
  ,                                       !- Number of Vertices
  0, 0, 4,                                !- X,Y,Z Vertex 1 {m}
  0, 0, 0,                                !- X,Y,Z Vertex 2 {m}
  6.45497224367903, 0, 0,                 !- X,Y,Z Vertex 3 {m}
  6.45497224367903, 0, 4;                 !- X,Y,Z Vertex 4 {m}

OS:Surface,
  {d7b5b01b-c738-4e62-bab0-d460b16f695a}, !- Handle
  Surface 21,                             !- Name
  Wall,                                   !- Surface Type
  ,                                       !- Construction Name
  {c86e11de-3d50-4135-9820-af7e95975c8f}, !- Space Name
  Surface,                                !- Outside Boundary Condition
  {f7af621c-bd45-47ab-b8a7-39e5d1142a9c}, !- Outside Boundary Condition Object
  NoSun,                                  !- Sun Exposure
  NoWind,                                 !- Wind Exposure
  ,                                       !- View Factor to Ground
  ,                                       !- Number of Vertices
  3, 3, 4,                                !- X,Y,Z Vertex 1 {m}
  3, 3, 0,                                !- X,Y,Z Vertex 2 {m}
  0, 0, 0,                                !- X,Y,Z Vertex 3 {m}
  0, 0, 4;                                !- X,Y,Z Vertex 4 {m}

OS:Surface,
  {e2770ec7-8c79-4880-8ced-0f32b60c502d}, !- Handle
  Surface 22,                             !- Name
  Wall,                                   !- Surface Type
  ,                                       !- Construction Name
  {c86e11de-3d50-4135-9820-af7e95975c8f}, !- Space Name
  Surface,                                !- Outside Boundary Condition
  {8948058c-b566-4ffc-82e3-5c24ec9d9bb6}, !- Outside Boundary Condition Object
  NoSun,                                  !- Sun Exposure
  NoWind,                                 !- Wind Exposure
  ,                                       !- View Factor to Ground
  ,                                       !- Number of Vertices
  3.45497224367903, 3, 4,                 !- X,Y,Z Vertex 1 {m}
  3.45497224367903, 3, 0,                 !- X,Y,Z Vertex 2 {m}
  3, 3, 0,                                !- X,Y,Z Vertex 3 {m}
  3, 3, 4;                                !- X,Y,Z Vertex 4 {m}

OS:Surface,
  {2118ff9e-0b87-4dd3-8684-ad292ba9c56b}, !- Handle
  Surface 23,                             !- Name
  Wall,                                   !- Surface Type
  ,                                       !- Construction Name
  {c86e11de-3d50-4135-9820-af7e95975c8f}, !- Space Name
  Surface,                                !- Outside Boundary Condition
  {e464dcc7-cee4-4b2e-b625-1b0a1b83d66a}, !- Outside Boundary Condition Object
  NoSun,                                  !- Sun Exposure
  NoWind,                                 !- Wind Exposure
  ,                                       !- View Factor to Ground
  ,                                       !- Number of Vertices
  6.45497224367903, 0, 4,                 !- X,Y,Z Vertex 1 {m}
  6.45497224367903, 0, 0,                 !- X,Y,Z Vertex 2 {m}
  3.45497224367903, 3, 0,                 !- X,Y,Z Vertex 3 {m}
  3.45497224367903, 3, 4;                 !- X,Y,Z Vertex 4 {m}

OS:Surface,
  {b8602323-102b-4681-a4d1-53ce9ac2c2c3}, !- Handle
  Surface 24,                             !- Name
  RoofCeiling,                            !- Surface Type
  ,                                       !- Construction Name
  {c86e11de-3d50-4135-9820-af7e95975c8f}, !- Space Name
  Surface,                                !- Outside Boundary Condition
  {7bffc56b-1675-41b0-a317-b12748239c82}, !- Outside Boundary Condition Object
  NoSun,                                  !- Sun Exposure
  NoWind,                                 !- Wind Exposure
  ,                                       !- View Factor to Ground
  ,                                       !- Number of Vertices
  3.45497224367903, 3, 4,                 !- X,Y,Z Vertex 1 {m}
  3, 3, 4,                                !- X,Y,Z Vertex 2 {m}
  0, 0, 4,                                !- X,Y,Z Vertex 3 {m}
  6.45497224367903, 0, 4;                 !- X,Y,Z Vertex 4 {m}

OS:Space,
  {47b9edc5-e5f5-4b50-9686-f1397633dea7}, !- Handle
  Story 1 Core Space,                     !- Name
  ,                                       !- Space Type Name
  ,                                       !- Default Construction Set Name
  ,                                       !- Default Schedule Set Name
  -0,                                     !- Direction of Relative North {deg}
  3,                                      !- X Origin {m}
  3,                                      !- Y Origin {m}
  0,                                      !- Z Origin {m}
  {953302b5-1b9c-4b91-b85c-7a016dc79725}, !- Building Story Name
  {0abc4ef3-ef5d-4460-8824-7f76d764eefa}; !- Thermal Zone Name

OS:Surface,
  {df9a5a44-32f3-45a6-87a2-5a24188afe4f}, !- Handle
  Surface 25,                             !- Name
  Floor,                                  !- Surface Type
  ,                                       !- Construction Name
  {47b9edc5-e5f5-4b50-9686-f1397633dea7}, !- Space Name
  Ground,                                 !- Outside Boundary Condition
  ,                                       !- Outside Boundary Condition Object
  NoSun,                                  !- Sun Exposure
  NoWind,                                 !- Wind Exposure
  ,                                       !- View Factor to Ground
  ,                                       !- Number of Vertices
  0, 0, 0,                                !- X,Y,Z Vertex 1 {m}
  0, 0.45497224367903, 0,                 !- X,Y,Z Vertex 2 {m}
  0.45497224367903, 0.45497224367903, 0,  !- X,Y,Z Vertex 3 {m}
  0.45497224367903, 0, 0;                 !- X,Y,Z Vertex 4 {m}

OS:Surface,
  {1e8e8022-4a4b-4ea5-af6b-fbba2c1727ef}, !- Handle
  Surface 26,                             !- Name
  Wall,                                   !- Surface Type
  ,                                       !- Construction Name
  {47b9edc5-e5f5-4b50-9686-f1397633dea7}, !- Space Name
  Surface,                                !- Outside Boundary Condition
  {02353525-4ec6-4578-89fd-c14aa7297262}, !- Outside Boundary Condition Object
  NoSun,                                  !- Sun Exposure
  NoWind,                                 !- Wind Exposure
  ,                                       !- View Factor to Ground
  ,                                       !- Number of Vertices
  0, 0.45497224367903, 4,                 !- X,Y,Z Vertex 1 {m}
  0, 0.45497224367903, 0,                 !- X,Y,Z Vertex 2 {m}
  0, 0, 0,                                !- X,Y,Z Vertex 3 {m}
  0, 0, 4;                                !- X,Y,Z Vertex 4 {m}

OS:Surface,
  {bca9e56a-e0b1-4837-b6f5-426b95bda040}, !- Handle
  Surface 27,                             !- Name
  Wall,                                   !- Surface Type
  ,                                       !- Construction Name
  {47b9edc5-e5f5-4b50-9686-f1397633dea7}, !- Space Name
  Surface,                                !- Outside Boundary Condition
  {02129a1f-aa9c-445d-8714-3f491c8a162d}, !- Outside Boundary Condition Object
  NoSun,                                  !- Sun Exposure
  NoWind,                                 !- Wind Exposure
  ,                                       !- View Factor to Ground
  ,                                       !- Number of Vertices
  0.45497224367903, 0.45497224367903, 4,  !- X,Y,Z Vertex 1 {m}
  0.45497224367903, 0.45497224367903, 0,  !- X,Y,Z Vertex 2 {m}
  0, 0.45497224367903, 0,                 !- X,Y,Z Vertex 3 {m}
  0, 0.45497224367903, 4;                 !- X,Y,Z Vertex 4 {m}

OS:Surface,
  {3cc491fb-f30a-4195-9485-e325d7cc3549}, !- Handle
  Surface 28,                             !- Name
  Wall,                                   !- Surface Type
  ,                                       !- Construction Name