
OS:Version,
  {04613059-664a-4e14-b20c-6d663219e3b6}, !- Handle
  0.10.0;                                 !- Version Identifier

OS:BuildingStory,
  {5e14f9e3-43a9-4ffb-a5cc-b8d560e92287}, !- Handle
  Story 1,                                !- Name
  0,                                      !- Nominal Z Coordinate {m}
  4,                                      !- Nominal Floor to Floor Height {m}
  ,                                       !- Default Construction Set Name
  ,                                       !- Default Schedule Set Name
  ;                                       !- Group Rendering Name

OS:Space,
  {051e28e9-0bc5-4d7e-830b-c95eb7136c1d}, !- Handle
  Story 1 West Perimeter Space,           !- Name
  ,                                       !- Space Type Name
  ,                                       !- Default Construction Set Name
  ,                                       !- Default Schedule Set Name
  -0,                                     !- Direction of Relative North {deg}
  0,                                      !- X Origin {m}
  0,                                      !- Y Origin {m}
  0,                                      !- Z Origin {m}
  {5e14f9e3-43a9-4ffb-a5cc-b8d560e92287}, !- Building Story Name
  {11baaf34-7a72-4fc9-bed9-ed87ddff894f}; !- Thermal Zone Name

OS:Surface,
  {ea693130-bc5a-407a-9cfa-82016dd4d2e4}, !- Handle
  Surface 1,                              !- Name
  Floor,                                  !- Surface Type
  ,                                       !- Construction Name
  {051e28e9-0bc5-4d7e-830b-c95eb7136c1d}, !- Space Name
  Ground,                                 !- Outside Boundary Condition
  ,                                       !- Outside Boundary Condition Object
  NoSun,                                  !- Sun Exposure
  NoWind,                                 !- Wind Exposure
  ,                                       !- View Factor to Ground
  ,                                       !- Number of Vertices
  0, 0, 0,                                !- X,Y,Z Vertex 1 {m}
  0, 9.68245836551854, 0,                 !- X,Y,Z Vertex 2 {m}
  3, 6.68245836551854, 0,                 !- X,Y,Z Vertex 3 {m}
  3, 3, 0;                                !- X,Y,Z Vertex 4 {m}

OS:Surface,
  {c78aaf76-5a8d-486a-bf17-7c52f36d1d11}, !- Handle
  Surface 2,                              !- Name
  Wall,                                   !- Surface Type
  ,                                       !- Construction Name
  {051e28e9-0bc5-4d7e-830b-c95eb7136c1d}, !- Space Name
  Outdoors,                               !- Outside Boundary Condition
  ,                                       !- Outside Boundary Condition Object
  SunExposed,                             !- Sun Exposure
  WindExposed,                            !- Wind Exposure
  ,                                       !- View Factor to Ground
  ,                                       !- Number of Vertices
  0, 9.68245836551854, 4,                 !- X,Y,Z Vertex 1 {m}
  0, 9.68245836551854, 0,                 !- X,Y,Z Vertex 2 {m}
  0, 0, 0,                                !- X,Y,Z Vertex 3 {m}
  0, 0, 4;                                !- X,Y,Z Vertex 4 {m}

OS:Surface,
  {e3445302-a247-4bd9-b688-15fbdfdca9c3}, !- Handle
  Surface 3,                              !- Name
  Wall,                                   !- Surface Type
  ,                                       !- Construction Name
  {051e28e9-0bc5-4d7e-830b-c95eb7136c1d}, !- Space Name
  Surface,                                !- Outside Boundary Condition
  {b5cba7e9-2190-4052-a46e-d1edcf7d275d}, !- Outside Boundary Condition Object
  NoSun,                                  !- Sun Exposure
  NoWind,                                 !- Wind Exposure
  ,                                       !- View Factor to Ground
  ,                                       !- Number of Vertices
  3, 6.68245836551854, 4,                 !- X,Y,Z Vertex 1 {m}
  3, 6.68245836551854, 0,                 !- X,Y,Z Vertex 2 {m}
  0, 9.68245836551854, 0,                 !- X,Y,Z Vertex 3 {m}
  0, 9.68245836551854, 4;                 !- X,Y,Z Vertex 4 {m}

OS:Surface,
  {9103d272-3d1c-464b-a790-250f6cf5c094}, !- Handle
  Surface 4,                              !- Name
  Wall,                                   !- Surface Type
  ,                                       !- Construction Name
  {051e28e9-0bc5-4d7e-830b-c95eb7136c1d}, !- Space Name
  Surface,                                !- Outside Boundary Condition
  {4150881b-7d20-47ef-9eb7-10834f56d640}, !- Outside Boundary Condition Object
  NoSun,                                  !- Sun Exposure
  NoWind,                                 !- Wind Exposure
  ,                                       !- View Factor to Ground
  ,                                       !- Number of Vertices
  3, 3, 4,                                !- X,Y,Z Vertex 1 {m}
  3, 3, 0,                                !- X,Y,Z Vertex 2 {m}
  3, 6.68245836551854, 0,                 !- X,Y,Z Vertex 3 {m}
  3, 6.68245836551854, 4;                 !- X,Y,Z Vertex 4 {m}

OS:Surface,
  {ea41c3fc-1a13-4afb-8602-a132cb3de954}, !- Handle
  Surface 5,                              !- Name
  Wall,                                   !- Surface Type
  ,                                       !- Construction Name
  {051e28e9-0bc5-4d7e-830b-c95eb7136c1d}, !- Space Name
  Surface,                                !- Outside Boundary Condition
  {9b88e2b7-4bf2-422b-a4f6-55a4cf7f5ec4}, !- Outside Boundary Condition Object
  NoSun,                                  !- Sun Exposure
  NoWind,                                 !- Wind Exposure
  ,                                       !- View Factor to Ground
  ,                                       !- Number of Vertices
  0, 0, 4,                                !- X,Y,Z Vertex 1 {m}
  0, 0, 0,                                !- X,Y,Z Vertex 2 {m}
  3, 3, 0,                                !- X,Y,Z Vertex 3 {m}
  3, 3, 4;                                !- X,Y,Z Vertex 4 {m}

OS:Surface,
  {05c58ce4-1111-4a47-be9a-30c3b327cd6a}, !- Handle
  Surface 6,                              !- Name
  RoofCeiling,                            !- Surface Type
  ,                                       !- Construction Name
  {051e28e9-0bc5-4d7e-830b-c95eb7136c1d}, !- Space Name
  Surface,                                !- Outside Boundary Condition
  {0c1a5501-241b-41e0-8faf-bacb9ec95fb9}, !- Outside Boundary Condition Object
  NoSun,                                  !- Sun Exposure
  NoWind,                                 !- Wind Exposure
  ,                                       !- View Factor to Ground
  ,                                       !- Number of Vertices
  3, 3, 4,                                !- X,Y,Z Vertex 1 {m}
  3, 6.68245836551854, 4,                 !- X,Y,Z Vertex 2 {m}
  0, 9.68245836551854, 4,                 !- X,Y,Z Vertex 3 {m}
  0, 0, 4;                                !- X,Y,Z Vertex 4 {m}

OS:Space,
  {e793f460-ddf5-441e-93b3-e124c9ee501c}, !- Handle
  Story 1 North Perimeter Space,          !- Name
  ,                                       !- Space Type Name
  ,                                       !- Default Construction Set Name
  ,                                       !- Default Schedule Set Name
  -0,                                     !- Direction of Relative North {deg}
  3,                                      !- X Origin {m}
  6.68245836551854,                       !- Y Origin {m}
  0,                                      !- Z Origin {m}
  {5e14f9e3-43a9-4ffb-a5cc-b8d560e92287}, !- Building Story Name
  {f2ea068b-d986-49a6-a12d-5afeaee99e45}; !- Thermal Zone Name

OS:Surface,
  {28257ae8-f6a0-46cf-8b4b-d02931cfabd7}, !- Handle
  Surface 7,                              !- Name
  Floor,                                  !- Surface Type
  ,                                       !- Construction Name
  {e793f460-ddf5-441e-93b3-e124c9ee501c}, !- Space Name
  Ground,                                 !- Outside Boundary Condition
  ,                                       !- Outside Boundary Condition Object
  NoSun,                                  !- Sun Exposure
  NoWind,                                 !- Wind Exposure
  ,                                       !- View Factor to Ground
  ,                                       !- Number of Vertices
  -3, 3, 0,                               !- X,Y,Z Vertex 1 {m}
  6.68245836551854, 3, 0,                 !- X,Y,Z Vertex 2 {m}
  3.68245836551854, -1.77635683940025e-15, 0, !- X,Y,Z Vertex 3 {m}
  0, -1.77635683940025e-15, 0;            !- X,Y,Z Vertex 4 {m}

OS:Surface,
  {c57b991c-2256-4112-8dab-f0a8066b2b8d}, !- Handle
  Surface 8,                              !- Name
  Wall,                                   !- Surface Type
  ,                                       !- Construction Name
  {e793f460-ddf5-441e-93b3-e124c9ee501c}, !- Space Name
  Outdoors,                               !- Outside Boundary Condition
  ,                                       !- Outside Boundary Condition Object
  SunExposed,                             !- Sun Exposure
  WindExposed,                            !- Wind Exposure
  ,                                       !- View Factor to Ground
  ,                                       !- Number of Vertices
  6.68245836551854, 3, 4,                 !- X,Y,Z Vertex 1 {m}
  6.68245836551854, 3, 0,                 !- X,Y,Z Vertex 2 {m}
  -3, 3, 0,                               !- X,Y,Z Vertex 3 {m}
  -3, 3, 4;                               !- X,Y,Z Vertex 4 {m}

OS:Surface,
  {8c01a929-2f02-4583-95ff-846826a1881e}, !- Handle
  Surface 9,                              !- Name
  Wall,                                   !- Surface Type
  ,                                       !- Construction Name
  {e793f460-ddf5-441e-93b3-e124c9ee501c}, !- Space Name
  Surface,                                !- Outside Boundary Condition
  {c98914a2-d4a2-4214-b79d-06c96bf48014}, !- Outside Boundary Condition Object
  NoSun,                                  !- Sun Exposure
  NoWind,                                 !- Wind Exposure
  ,                                       !- View Factor to Ground
  ,                                       !- Number of Vertices
  3.68245836551854, -1.77635683940025e-15, 4, !- X,Y,Z Vertex 1 {m}
  3.68245836551854, -1.77635683940025e-15, 0, !- X,Y,Z Vertex 2 {m}
  6.68245836551854, 3, 0,                 !- X,Y,Z Vertex 3 {m}
  6.68245836551854, 3, 4;                 !- X,Y,Z Vertex 4 {m}

OS:Surface,
  {f9638707-b294-43bf-9018-5591cc8fa8e2}, !- Handle
  Surface 10,                             !- Name
  Wall,                                   !- Surface Type
  ,                                       !- Construction Name
  {e793f460-ddf5-441e-93b3-e124c9ee501c}, !- Space Name
  Surface,                                !- Outside Boundary Condition
  {021e00cf-a3c0-493b-bc07-8bd7bf2416cb}, !- Outside Boundary Condition Object
  NoSun,                                  !- Sun Exposure
  NoWind,                                 !- Wind Exposure
  ,                                       !- View Factor to Ground
  ,                                       !- Number of Vertices
  0, -1.77635683940025e-15, 4,            !- X,Y,Z Vertex 1 {m}
  0, -1.77635683940025e-15, 0,            !- X,Y,Z Vertex 2 {m}
  3.68245836551854, -1.77635683940025e-15, 0, !- X,Y,Z Vertex 3 {m}
  3.68245836551854, -1.77635683940025e-15, 4; !- X,Y,Z Vertex 4 {m}

OS:Surface,
  {b5cba7e9-2190-4052-a46e-d1edcf7d275d}, !- Handle
  Surface 11,                             !- Name
  Wall,                                   !- Surface Type
  ,                                       !- Construction Name
  {e793f460-ddf5-441e-93b3-e124c9ee501c}, !- Space Name
  Surface,                                !- Outside Boundary Condition
  {e3445302-a247-4bd9-b688-15fbdfdca9c3}, !- Outside Boundary Condition Object
  NoSun,                                  !- Sun Exposure
  NoWind,                                 !- Wind Exposure
  ,                                       !- View Factor to Ground
  ,                                       !- Number of Vertices
  -3, 3, 4,                               !- X,Y,Z Vertex 1 {m}
  -3, 3, 0,                               !- X,Y,Z Vertex 2 {m}
  0, -1.77635683940025e-15, 0,            !- X,Y,Z Vertex 3 {m}
  0, -1.77635683940025e-15, 4;            !- X,Y,Z Vertex 4 {m}

OS:Surface,
  {93e8e8c8-5d19-4520-8426-5684b7c1363b}, !- Handle
  Surface 12,                             !- Name
  RoofCeiling,                            !- Surface Type
  ,                                       !- Construction Name
  {e793f460-ddf5-441e-93b3-e124c9ee501c}, !- Space Name
  Surface,                                !- Outside Boundary Condition
  {15356a66-5669-439f-8b6b-8fc8c6ca8f9e}, !- Outside Boundary Condition Object
  NoSun,                                  !- Sun Exposure
  NoWind,                                 !- Wind Exposure
  ,                                       !- View Factor to Ground
  ,                                       !- Number of Vertices
  0, -1.77635683940025e-15, 4,            !- X,Y,Z Vertex 1 {m}
  3.68245836551854, -1.77635683940025e-15, 4, !- X,Y,Z Vertex 2 {m}
  6.68245836551854, 3, 4,                 !- X,Y,Z Vertex 3 {m}
  -3, 3, 4;                               !- X,Y,Z Vertex 4 {m}

OS:Space,
  {abf64e64-8e42-4820-bb66-a22db4f006a1}, !- Handle
  Story 1 East Perimeter Space,           !- Name
  ,                                       !- Space Type Name
  ,                                       !- Default Construction Set Name
  ,                                       !- Default Schedule Set Name
  -0,                                     !- Direction of Relative North {deg}
  6.68245836551854,                       !- X Origin {m}
  3,                                      !- Y Origin {m}
  0,                                      !- Z Origin {m}
  {5e14f9e3-43a9-4ffb-a5cc-b8d560e92287}, !- Building Story Name
  {1688945c-e8c6-4479-8155-67c434c9c864}; !- Thermal Zone Name

OS:Surface,
  {d368aad2-b5aa-4cb7-9b2b-500e8e0bc70d}, !- Handle
  Surface 13,                             !- Name
  Floor,                                  !- Surface Type
  ,                                       !- Construction Name
  {abf64e64-8e42-4820-bb66-a22db4f006a1}, !- Space Name
  Ground,                                 !- Outside Boundary Condition
  ,                                       !- Outside Boundary Condition Object
  NoSun,                                  !- Sun Exposure
  NoWind,                                 !- Wind Exposure
  ,                                       !- View Factor to Ground
  ,                                       !- Number of Vertices
  3, 6.68245836551854, 0,                 !- X,Y,Z Vertex 1 {m}
  3, -3, 0,                               !- X,Y,Z Vertex 2 {m}
  -1.77635683940025e-15, 0, 0,            !- X,Y,Z Vertex 3 {m}
  -1.77635683940025e-15, 3.68245836551854, 0; !- X,Y,Z Vertex 4 {m}

OS:Surface,
  {ae721707-bef9-4c3c-920b-0b592f2ec0b5}, !- Handle
  Surface 14,                             !- Name
  Wall,                                   !- Surface Type
  ,                                       !- Construction Name
  {abf64e64-8e42-4820-bb66-a22db4f006a1}, !- Space Name
  Outdoors,                               !- Outside Boundary Condition
  ,                                       !- Outside Boundary Condition Object
  SunExposed,                             !- Sun Exposure
  WindExposed,                            !- Wind Exposure
  ,                                       !- View Factor to Ground
  ,                                       !- Number of Vertices
  3, -3, 4,                               !- X,Y,Z Vertex 1 {m}
  3, -3, 0,                               !- X,Y,Z Vertex 2 {m}
  3, 6.68245836551854, 0,                 !- X,Y,Z Vertex 3 {m}
  3, 6.68245836551854, 4;                 !- X,Y,Z Vertex 4 {m}

OS:Surface,
  {2a6f834a-96ee-4c26-bf46-fcfee9f2484b}, !- Handle
  Surface 15,                             !- Name
  Wall,                                   !- Surface Type
  ,                                       !- Construction Name
  {abf64e64-8e42-4820-bb66-a22db4f006a1}, !- Space Name
  Surface,                                !- Outside Boundary Condition
  {8a49d18b-4d34-44e7-81ad-f8db1ffd04dc}, !- Outside Boundary Condition Object
  NoSun,                                  !- Sun Exposure
  NoWind,                                 !- Wind Exposure
  ,                                       !- View Factor to Ground
  ,                                       !- Number of Vertices
  -1.77635683940025e-15, 0, 4,            !- X,Y,Z Vertex 1 {m}
  -1.77635683940025e-15, 0, 0,            !- X,Y,Z Vertex 2 {m}
  3, -3, 0,                               !- X,Y,Z Vertex 3 {m}
  3, -3, 4;                               !- X,Y,Z Vertex 4 {m}

OS:Surface,
  {22bfb267-2fbb-4c52-acc3-7b927d953c90}, !- Handle
  Surface 16,                             !- Name
  Wall,                                   !- Surface Type
  ,                                       !- Construction Name
  {abf64e64-8e42-4820-bb66-a22db4f006a1}, !- Space Name
  Surface,                                !- Outside Boundary Condition
  {719bddf5-663f-4772-81d6-e9352c5cba6e}, !- Outside Boundary Condition Object
  NoSun,                                  !- Sun Exposure
  NoWind,                                 !- Wind Exposure
  ,                                       !- View Factor to Ground
  ,                                       !- Number of Vertices
  -1.77635683940025e-15, 3.68245836551854, 4, !- X,Y,Z Vertex 1 {m}
  -1.77635683940025e-15, 3.68245836551854, 0, !- X,Y,Z Vertex 2 {m}
  -1.77635683940025e-15, 0, 0,            !- X,Y,Z Vertex 3 {m}
  -1.77635683940025e-15, 0, 4;            !- X,Y,Z Vertex 4 {m}

OS:Surface,
  {c98914a2-d4a2-4214-b79d-06c96bf48014}, !- Handle
  Surface 17,                             !- Name
  Wall,                                   !- Surface Type
  ,                                       !- Construction Name
  {abf64e64-8e42-4820-bb66-a22db4f006a1}, !- Space Name
  Surface,                                !- Outside Boundary Condition
  {8c01a929-2f02-4583-95ff-846826a1881e}, !- Outside Boundary Condition Object
  NoSun,                                  !- Sun Exposure
  NoWind,                                 !- Wind Exposure
  ,                                       !- View Factor to Ground
  ,                                       !- Number of Vertices
  3, 6.68245836551854, 4,                 !- X,Y,Z Vertex 1 {m}
  3, 6.68245836551854, 0,                 !- X,Y,Z Vertex 2 {m}
  -1.77635683940025e-15, 3.68245836551854, 0, !- X,Y,Z Vertex 3 {m}
  -1.77635683940025e-15, 3.68245836551854, 4; !- X,Y,Z Vertex 4 {m}

OS:Surface,
  {07609aab-6c06-4a03-a50d-0e9c4a695165}, !- Handle
  Surface 18,                             !- Name
  RoofCeiling,                            !- Surface Type
  ,                                       !- Construction Name
  {abf64e64-8e42-4820-bb66-a22db4f006a1}, !- Space Name
  Surface,                                !- Outside Boundary Condition
  {680dead2-9cb1-4598-89e4-eab067f5db3e}, !- Outside Boundary Condition Object
  NoSun,                                  !- Sun Exposure
  NoWind,                                 !- Wind Exposure
  ,                                       !- View Factor to Ground
  ,                                       !- Number of Vertices
  -1.77635683940025e-15, 3.68245836551854, 4, !- X,Y,Z Vertex 1 {m}
  -1.77635683940025e-15, 0, 4,            !- X,Y,Z Vertex 2 {m}
  3, -3, 4,                               !- X,Y,Z Vertex 3 {m}
  3, 6.68245836551854, 4;                 !- X,Y,Z Vertex 4 {m}

OS:Space,
  {58f09237-c971-4b2b-9edd-a3ac5075f965}, !- Handle
  Story 1 South Perimeter Space,          !- Name
  ,                                       !- Space Type Name
  ,                                       !- Default Construction Set Name
  ,                                       !- Default Schedule Set Name
  -0,                                     !- Direction of Relative North {deg}
  0,                                      !- X Origin {m}
  0,                                      !- Y Origin {m}
  0,                                      !- Z Origin {m}
  {5e14f9e3-43a9-4ffb-a5cc-b8d560e92287}, !- Building Story Name
  {430678cb-f019-4a9a-813d-7c0a870c3f7f}; !- Thermal Zone Name

OS:Surface,
  {2997bede-77de-4238-896b-5d42788f7ad5}, !- Handle
  Surface 19,                             !- Name
  Floor,                                  !- Surface Type
  ,                                       !- Construction Name
  {58f09237-c971-4b2b-9edd-a3ac5075f965}, !- Space Name
  Ground,                                 !- Outside Boundary Condition
  ,                                       !- Outside Boundary Condition Object
  NoSun,                                  !- Sun Exposure
  NoWind,                                 !- Wind Exposure
  ,                                       !- View Factor to Ground
  ,                                       !- Number of Vertices
  9.68245836551854, 0, 0,                 !- X,Y,Z Vertex 1 {m}
  0, 0, 0,                                !- X,Y,Z Vertex 2 {m}
  3, 3, 0,                                !- X,Y,Z Vertex 3 {m}
  6.68245836551854, 3, 0;                 !- X,Y,Z Vertex 4 {m}

OS:Surface,
  {e80e9cea-8627-4742-8ddd-36ef43e5debe}, !- Handle
  Surface 20,                             !- Name
  Wall,                                   !- Surface Type
  ,                                       !- Construction Name
  {58f09237-c971-4b2b-9edd-a3ac5075f965}, !- Space Name
  Outdoors,                               !- Outside Boundary Condition
  ,                                       !- Outside Boundary Condition Object
  SunExposed,                             !- Sun Exposure
  WindExposed,                            !- Wind Exposure
  ,                                       !- View Factor to Ground
  ,                                       !- Number of Vertices
  0, 0, 4,                                !- X,Y,Z Vertex 1 {m}
  0, 0, 0,                                !- X,Y,Z Vertex 2 {m}
  9.68245836551854, 0, 0,                 !- X,Y,Z Vertex 3 {m}
  9.68245836551854, 0, 4;                 !- X,Y,Z Vertex 4 {m}

OS:Surface,
  {9b88e2b7-4bf2-422b-a4f6-55a4cf7f5ec4}, !- Handle
  Surface 21,                             !- Name
  Wall,                                   !- Surface Type
  ,                                       !- Construction Name
  {58f09237-c971-4b2b-9edd-a3ac5075f965}, !- Space Name
  Surface,                                !- Outside Boundary Condition
  {ea41c3fc-1a13-4afb-8602-a132cb3de954}, !- Outside Boundary Condition Object
  NoSun,                                  !- Sun Exposure
  NoWind,                                 !- Wind Exposure
  ,                                       !- View Factor to Ground
  ,                                       !- Number of Vertices
  3, 3, 4,                                !- X,Y,Z Vertex 1 {m}
  3, 3, 0,                                !- X,Y,Z Vertex 2 {m}
  0, 0, 0,                                !- X,Y,Z Vertex 3 {m}
  0, 0, 4;                                !- X,Y,Z Vertex 4 {m}

OS:Surface,
  {7f1dc1ff-cec7-4510-947d-cc09030d9a22}, !- Handle
  Surface 22,                             !- Name
  Wall,                                   !- Surface Type
  ,                                       !- Construction Name
  {58f09237-c971-4b2b-9edd-a3ac5075f965}, !- Space Name
  Surface,                                !- Outside Boundary Condition
  {24d20d88-74b9-4022-a30c-ab76571d3fc5}, !- Outside Boundary Condition Object
  NoSun,                                  !- Sun Exposure
  NoWind,                                 !- Wind Exposure
  ,                                       !- View Factor to Ground
  ,                                       !- Number of Vertices
  6.68245836551854, 3, 4,                 !- X,Y,Z Vertex 1 {m}
  6.68245836551854, 3, 0,                 !- X,Y,Z Vertex 2 {m}
  3, 3, 0,                                !- X,Y,Z Vertex 3 {m}
  3, 3, 4;                                !- X,Y,Z Vertex 4 {m}

OS:Surface,
  {8a49d18b-4d34-44e7-81ad-f8db1ffd04dc}, !- Handle
  Surface 23,                             !- Name
  Wall,                                   !- Surface Type
  ,                                       !- Construction Name
  {58f09237-c971-4b2b-9edd-a3ac5075f965}, !- Space Name
  Surface,                                !- Outside Boundary Condition
  {2a6f834a-96ee-4c26-bf46-fcfee9f2484b}, !- Outside Boundary Condition Object
  NoSun,                                  !- Sun Exposure
  NoWind,                                 !- Wind Exposure
  ,                                       !- View Factor to Ground
  ,                                       !- Number of Vertices
  9.68245836551854, 0, 4,                 !- X,Y,Z Vertex 1 {m}
  9.68245836551854, 0, 0,                 !- X,Y,Z Vertex 2 {m}
  6.68245836551854, 3, 0,                 !- X,Y,Z Vertex 3 {m}
  6.68245836551854, 3, 4;                 !- X,Y,Z Vertex 4 {m}

OS:Surface,
  {89302a63-d1de-4e6c-a9ce-a9ea134c4c8f}, !- Handle
  Surface 24,                             !- Name
  RoofCeiling,                            !- Surface Type
  ,                                       !- Construction Name
  {58f09237-c971-4b2b-9edd-a3ac5075f965}, !- Space Name
  Surface,                                !- Outside Boundary Condition
  {8ffb1d74-c054-4c87-b665-506828659d7e}, !- Outside Boundary Condition Object
  NoSun,                                  !- Sun Exposure
  NoWind,                                 !- Wind Exposure
  ,                                       !- View Factor to Ground
  ,                                       !- Number of Vertices
  6.68245836551854, 3, 4,                 !- X,Y,Z Vertex 1 {m}
  3, 3, 4,                                !- X,Y,Z Vertex 2 {m}
  0, 0, 4,                                !- X,Y,Z Vertex 3 {m}
  9.68245836551854, 0, 4;                 !- X,Y,Z Vertex 4 {m}

OS:Space,
  {22d6a9ba-c7c1-4a51-ac83-1c0651fb7c02}, !- Handle
  Story 1 Core Space,                     !- Name
  ,                                       !- Space Type Name
  ,                                       !- Default Construction Set Name
  ,                                       !- Default Schedule Set Name
  -0,                                     !- Direction of Relative North {deg}
  3,                                      !- X Origin {m}
  3,                                      !- Y Origin {m}
  0,                                      !- Z Origin {m}
  {5e14f9e3-43a9-4ffb-a5cc-b8d560e92287}, !- Building Story Name
  {8ec07b4a-076d-4bf0-8a7a-b1d1f589c78e}; !- Thermal Zone Name

OS:Surface,
  {561a6375-267c-47cd-a4b3-66701e9c5962}, !- Handle
  Surface 25,                             !- Name
  Floor,                                  !- Surface Type
  ,                                       !- Construction Name
  {22d6a9ba-c7c1-4a51-ac83-1c0651fb7c02}, !- Space Name
  Ground,                                 !- Outside Boundary Condition
  ,                                       !- Outside Boundary Condition Object
  NoSun,                                  !- Sun Exposure
  NoWind,                                 !- Wind Exposure
  ,                                       !- View Factor to Ground
  ,                                       !- Number of Vertices
  0, 0, 0,                                !- X,Y,Z Vertex 1 {m}
  0, 3.68245836551854, 0,                 !- X,Y,Z Vertex 2 {m}
  3.68245836551854, 3.68245836551854, 0,  !- X,Y,Z Vertex 3 {m}
  3.68245836551854, 0, 0;                 !- X,Y,Z Vertex 4 {m}

OS:Surface,
  {4150881b-7d20-47ef-9eb7-10834f56d640}, !- Handle
  Surface 26,                             !- Name
  Wall,                                   !- Surface Type
  ,                                       !- Construction Name
  {22d6a9ba-c7c1-4a51-ac83-1c0651fb7c02}, !- Space Name
  Surface,                                !- Outside Boundary Condition
  {9103d272-3d1c-464b-a790-250f6cf5c094}, !- Outside Boundary Condition Object
  NoSun,                                  !- Sun Exposure
  NoWind,                                 !- Wind Exposure
  ,                                       !- View Factor to Ground
  ,                                       !- Number of Vertices
  0, 3.68245836551854, 4,                 !- X,Y,Z Vertex 1 {m}
  0, 3.68245836551854, 0,                 !- X,Y,Z Vertex 2 {m}
  0, 0, 0,                                !- X,Y,Z Vertex 3 {m}
  0, 0, 4;                                !- X,Y,Z Vertex 4 {m}

OS:Surface,
  {021e00cf-a3c0-493b-bc07-8bd7bf2416cb}, !- Handle
  Surface 27,                             !- Name
  Wall,                                   !- Surface Type
  ,                                       !- Construction Name
  {22d6a9ba-c7c1-4a51-ac83-1c0651fb7c02}, !- Space Name
  Surface,                                !- Outside Boundary Condition
  {f9638707-b294-43bf-9018-5591cc8fa8e2}, !- Outside Boundary Condition Object
  NoSun,                                  !- Sun Exposure
  NoWind,                                 !- Wind Exposure
  ,                                       !- View Factor to Ground
  ,                                       !- Number of Vertices
  3.68245836551854, 3.68245836551854, 4,  !- X,Y,Z Vertex 1 {m}
  3.68245836551854, 3.68245836551854, 0,  !- X,Y,Z Vertex 2 {m}
  0, 3.68245836551854, 0,                 !- X,Y,Z Vertex 3 {m}
  0, 3.68245836551854, 4;                 !- X,Y,Z Vertex 4 {m}

OS:Surface,
  {719bddf5-663f-4772-81d6-e9352c5cba6e}, !- Handle
  Surface 28,                             !- Name
  Wall,                                   !- Surface Type
  ,                                       !- Construction Name