
OS:Version,
  {1a0e5633-05d1-4c90-9995-9af1cc57b5db}, !- Handle
  0.10.0;                                 !- Version Identifier

OS:BuildingStory,
  {efce7c43-b478-4888-b5c4-838a02657a8a}, !- Handle
  Story 1,                                !- Name
  0,                                      !- Nominal Z Coordinate {m}
  4,                                      !- Nominal Floor to Floor Height {m}
  ,                                       !- Default Construction Set Name
  ,                                       !- Default Schedule Set Name
  ;                                       !- Group Rendering Name

OS:Space,
  {6a4962cb-6c33-4c4c-b67d-0a71af668d6c}, !- Handle
  Story 1 West Perimeter Space,           !- Name
  ,                                       !- Space Type Name
  ,                                       !- Default Construction Set Name
  ,                                       !- Default Schedule Set Name
  -0,                                     !- Direction of Relative North {deg}
  0,                                      !- X Origin {m}
  0,                                      !- Y Origin {m}
  0,                                      !- Z Origin {m}
  {efce7c43-b478-4888-b5c4-838a02657a8a}, !- Building Story Name
  {7498f74d-cc27-42de-be49-841bcab1c3c6}; !- Thermal Zone Name

OS:Surface,
  {abcac045-3540-4a17-acb7-354b352426aa}, !- Handle
  Surface 1,                              !- Name
  Floor,                                  !- Surface Type
  ,                                       !- Construction Name
  {6a4962cb-6c33-4c4c-b67d-0a71af668d6c}, !- Space Name
  Ground,                                 !- Outside Boundary Condition
  ,                                       !- Outside Boundary Condition Object
  NoSun,                                  !- Sun Exposure
  NoWind,                                 !- Wind Exposure
  ,                                       !- View Factor to Ground
  ,                                       !- Number of Vertices
  0, 0, 0,                                !- X,Y,Z Vertex 1 {m}
  0, 22.0680764907139, 0,                 !- X,Y,Z Vertex 2 {m}
  3, 19.0680764907139, 0,                 !- X,Y,Z Vertex 3 {m}
  3, 3, 0;                                !- X,Y,Z Vertex 4 {m}

OS:Surface,
  {9e0342c4-9da2-4e76-a1fc-e31f6c2de202}, !- Handle
  Surface 2,                              !- Name
  Wall,                                   !- Surface Type
  ,                                       !- Construction Name
  {6a4962cb-6c33-4c4c-b67d-0a71af668d6c}, !- Space Name
  Outdoors,                               !- Outside Boundary Condition
  ,                                       !- Outside Boundary Condition Object
  SunExposed,                             !- Sun Exposure
  WindExposed,                            !- Wind Exposure
  ,                                       !- View Factor to Ground
  ,                                       !- Number of Vertices
  0, 22.0680764907139, 4,                 !- X,Y,Z Vertex 1 {m}
  0, 22.0680764907139, 0,                 !- X,Y,Z Vertex 2 {m}
  0, 0, 0,                                !- X,Y,Z Vertex 3 {m}
  0, 0, 4;                                !- X,Y,Z Vertex 4 {m}

OS:Surface,
  {92f817b6-b108-41f0-9f25-110c09774125}, !- Handle
  Surface 3,                              !- Name
  Wall,                                   !- Surface Type
  ,                                       !- Construction Name
  {6a4962cb-6c33-4c4c-b67d-0a71af668d6c}, !- Space Name
  Surface,                                !- Outside Boundary Condition
  {8201d5a1-5a66-4dba-9149-669105db9b52}, !- Outside Boundary Condition Object
  NoSun,                                  !- Sun Exposure
  NoWind,                                 !- Wind Exposure
  ,                                       !- View Factor to Ground
  ,                                       !- Number of Vertices
  3, 19.0680764907139, 4,                 !- X,Y,Z Vertex 1 {m}
  3, 19.0680764907139, 0,                 !- X,Y,Z Vertex 2 {m}
  0, 22.0680764907139, 0,                 !- X,Y,Z Vertex 3 {m}
  0, 22.0680764907139, 4;                 !- X,Y,Z Vertex 4 {m}

OS:Surface,
  {abcb2fbc-9a85-46ca-a568-42edc81e1ede}, !- Handle
  Surface 4,                              !- Name
  Wall,                                   !- Surface Type
  ,                                       !- Construction Name
  {6a4962cb-6c33-4c4c-b67d-0a71af668d6c}, !- Space Name
  Surface,                                !- Outside Boundary Condition
  {e3316337-b2ee-4ec7-ad1f-223870ead71e}, !- Outside Boundary Condition Object
  NoSun,                                  !- Sun Exposure
  NoWind,                                 !- Wind Exposure
  ,                                       !- View Factor to Ground
  ,                                       !- Number of Vertices
  3, 3, 4,                                !- X,Y,Z Vertex 1 {m}
  3, 3, 0,                                !- X,Y,Z Vertex 2 {m}
  3, 19.0680764907139, 0,                 !- X,Y,Z Vertex 3 {m}
  3, 19.0680764907139, 4;                 !- X,Y,Z Vertex 4 {m}

OS:Surface,
  {d44a94c9-b1d2-40e5-8a6a-63c4dd5f0891}, !- Handle
  Surface 5,                              !- Name
  Wall,                                   !- Surface Type
  ,                                       !- Construction Name
  {6a4962cb-6c33-4c4c-b67d-0a71af668d6c}, !- Space Name
  Surface,                                !- Outside Boundary Condition
  {ed7a7be1-079c-459b-aedd-a4ba016faeb3}, !- Outside Boundary Condition Object
  NoSun,                                  !- Sun Exposure
  NoWind,                                 !- Wind Exposure
  ,                                       !- View Factor to Ground
  ,                                       !- Number of Vertices
  0, 0, 4,                                !- X,Y,Z Vertex 1 {m}
  0, 0, 0,                                !- X,Y,Z Vertex 2 {m}
  3, 3, 0,                                !- X,Y,Z Vertex 3 {m}
  3, 3, 4;                                !- X,Y,Z Vertex 4 {m}

OS:Surface,
  {5918bd68-4ddf-4ab0-b1e5-f65e56928bc7}, !- Handle
  Surface 6,                              !- Name
  RoofCeiling,                            !- Surface Type
  ,                                       !- Construction Name
  {6a4962cb-6c33-4c4c-b67d-0a71af668d6c}, !- Space Name
  Outdoors,                               !- Outside Boundary Condition
  ,                                       !- Outside Boundary Condition Object
  SunExposed,                             !- Sun Exposure
  WindExposed,                            !- Wind Exposure
  ,                                       !- View Factor to Ground
  ,                                       !- Number of Vertices
  3, 3, 4,                                !- X,Y,Z Vertex 1 {m}
  3, 19.0680764907139, 4,                 !- X,Y,Z Vertex 2 {m}
  0, 22.0680764907139, 4,                 !- X,Y,Z Vertex 3 {m}
  0, 0, 4;                                !- X,Y,Z Vertex 4 {m}

OS:Space,
  {b4a4f1c8-481c-4767-874a-da4e2b81407a}, !- Handle
  Story 1 North Perimeter Space,          !- Name
  ,                                       !- Space Type Name
  ,                                       !- Default Construction Set Name
  ,                                       !- Default Schedule Set Name
  -0,                                     !- Direction of Relative North {deg}
  3,                                      !- X Origin {m}
  19.0680764907139,                       !- Y Origin {m}
  0,                                      !- Z Origin {m}
  {efce7c43-b478-4888-b5c4-838a02657a8a}, !- Building Story Name
  {43f27582-3564-4efd-ab81-5e4975737a2c}; !- Thermal Zone Name

OS:Surface,
  {6984e3b4-75fb-46fc-8157-05cc44d857dd}, !- Handle
  Surface 7,                              !- Name
  Floor,                                  !- Surface Type
  ,                                       !- Construction Name
  {b4a4f1c8-481c-4767-874a-da4e2b81407a}, !- Space Name
  Ground,                                 !- Outside Boundary Condition
  ,                                       !- Outside Boundary Condition Object
  NoSun,                                  !- Sun Exposure
  NoWind,                                 !- Wind Exposure
  ,                                       !- View Factor to Ground
  ,                                       !- Number of Vertices
  -3, 2.99999999999999, 0,                !- X,Y,Z Vertex 1 {m}
  19.0680764907139, 2.99999999999999, 0,  !- X,Y,Z Vertex 2 {m}
  16.0680764907139, -1.06581410364015e-14, 0, !- X,Y,Z Vertex 3 {m}
  0, -1.06581410364015e-14, 0;            !- X,Y,Z Vertex 4 {m}

OS:Surface,
  {735b92b9-c8c2-403e-8519-2d9196da1ae3}, !- Handle
  Surface 8,                              !- Name
  Wall,                                   !- Surface Type
  ,                                       !- Construction Name
  {b4a4f1c8-481c-4767-874a-da4e2b81407a}, !- Space Name
  Outdoors,                               !- Outside Boundary Condition
  ,                                       !- Outside Boundary Condition Object
  SunExposed,                             !- Sun Exposure
  WindExposed,                            !- Wind Exposure
  ,                                       !- View Factor to Ground
  ,                                       !- Number of Vertices
  19.0680764907139, 2.99999999999999, 4,  !- X,Y,Z Vertex 1 {m}
  19.0680764907139, 2.99999999999999, 0,  !- X,Y,Z Vertex 2 {m}
  -3, 2.99999999999999, 0,                !- X,Y,Z Vertex 3 {m}
  -3, 2.99999999999999, 4;                !- X,Y,Z Vertex 4 {m}

OS:Surface,
  {a0c6666e-793c-4016-ac65-5fde15c595c7}, !- Handle
  Surface 9,                              !- Name
  Wall,                                   !- Surface Type
  ,                                       !- Construction Name
  {b4a4f1c8-481c-4767-874a-da4e2b81407a}, !- Space Name
  Surface,                                !- Outside Boundary Condition
  {aadfdd80-2c11-4062-88ad-690685abe788}, !- Outside Boundary Condition Object
  NoSun,                                  !- Sun Exposure
  NoWind,                                 !- Wind Exposure
  ,                                       !- View Factor to Ground
  ,                                       !- Number of Vertices
  16.0680764907139, -1.06581410364015e-14, 4, !- X,Y,Z Vertex 1 {m}
  16.0680764907139, -1.06581410364015e-14, 0, !- X,Y,Z Vertex 2 {m}
  19.0680764907139, 2.99999999999999, 0,  !- X,Y,Z Vertex 3 {m}
  19.0680764907139, 2.99999999999999, 4;  !- X,Y,Z Vertex 4 {m}

OS:Surface,
  {642f0b91-7acf-4223-b8f4-18f9286a4c0c}, !- Handle
  Surface 10,                             !- Name
  Wall,                                   !- Surface Type
  ,                                       !- Construction Name
  {b4a4f1c8-481c-4767-874a-da4e2b81407a}, !- Space Name
  Surface,                                !- Outside Boundary Condition
  {1f68d6d3-ccd0-47fb-8270-5bc0c090d28b}, !- Outside Boundary Condition Object
  NoSun,                                  !- Sun Exposure
  NoWind,                                 !- Wind Exposure
  ,                                       !- View Factor to Ground
  ,                                       !- Number of Vertices
  0, -1.06581410364015e-14, 4,            !- X,Y,Z Vertex 1 {m}
  0, -1.06581410364015e-14, 0,            !- X,Y,Z Vertex 2 {m}
  16.0680764907139, -1.06581410364015e-14, 0, !- X,Y,Z Vertex 3 {m}
  16.0680764907139, -1.06581410364015e-14, 4; !- X,Y,Z Vertex 4 {m}

OS:Surface,
  {8201d5a1-5a66-4dba-9149-669105db9b52}, !- Handle
  Surface 11,                             !- Name
  Wall,                                   !- Surface Type
  ,                                       !- Construction Name
  {b4a4f1c8-481c-4767-874a-da4e2b81407a}, !- Space Name
  Surface,                                !- Outside Boundary Condition
  {92f817b6-b108-41f0-9f25-110c09774125}, !- Outside Boundary Condition Object
  NoSun,                                  !- Sun Exposure
  NoWind,                                 !- Wind Exposure
  ,                                       !- View Factor to Ground
  ,                                       !- Number of Vertices
  -3, 2.99999999999999, 4,                !- X,Y,Z Vertex 1 {m}
  -3, 2.99999999999999, 0,                !- X,Y,Z Vertex 2 {m}
  0, -1.06581410364015e-14, 0,            !- X,Y,Z Vertex 3 {m}
  0, -1.06581410364015e-14, 4;            !- X,Y,Z Vertex 4 {m}

OS:Surface,
  {394c125a-0bd4-4721-b9f0-0915af3a70bb}, !- Handle
  Surface 12,                             !- Name
  RoofCeiling,                            !- Surface Type
  ,                                       !- Construction Name
  {b4a4f1c8-481c-4767-874a-da4e2b81407a}, !- Space Name
  Outdoors,                               !- Outside Boundary Condition
  ,                                       !- Outside Boundary Condition Object
  SunExposed,                             !- Sun Exposure
  WindExposed,                            !- Wind Exposure
  ,                                       !- View Factor to Ground
  ,                                       !- Number of Vertices
  0, -1.06581410364015e-14, 4,            !- X,Y,Z Vertex 1 {m}
  16.0680764907139, -1.06581410364015e-14, 4, !- X,Y,Z Vertex 2 {m}
  19.0680764907139, 2.99999999999999, 4,  !- X,Y,Z Vertex 3 {m}
  -3, 2.99999999999999, 4;                !- X,Y,Z Vertex 4 {m}

OS:Space,
  {09831270-1e83-4d37-8669-f2b925be2b26}, !- Handle
  Story 1 East Perimeter Space,           !- Name
  ,                                       !- Space Type Name
  ,                                       !- Default Construction Set Name
  ,                                       !- Default Schedule Set Name
  -0,                                     !- Direction of Relative North {deg}
  19.0680764907139,                       !- X Origin {m}
  3,                                      !- Y Origin {m}
  0,                                      !- Z Origin {m}
  {efce7c43-b478-4888-b5c4-838a02657a8a}, !- Building Story Name
  {23348f72-6f6e-4123-9b74-166e6192ad4f}; !- Thermal Zone Name

OS:Surface,
  {d2f2670d-fc14-42d8-a216-dee394887265}, !- Handle
  Surface 13,                             !- Name
  Floor,                                  !- Surface Type
  ,                                       !- Construction Name
  {09831270-1e83-4d37-8669-f2b925be2b26}, !- Space Name
  Ground,                                 !- Outside Boundary Condition
  ,                                       !- Outside Boundary Condition Object
  NoSun,                                  !- Sun Exposure
  NoWind,                                 !- Wind Exposure
  ,                                       !- View Factor to Ground
  ,                                       !- Number of Vertices
  2.99999999999999, 19.0680764907139, 0,  !- X,Y,Z Vertex 1 {m}
  2.99999999999999, -3, 0,                !- X,Y,Z Vertex 2 {m}
  -1.06581410364015e-14, 0, 0,            !- X,Y,Z Vertex 3 {m}
  -1.06581410364015e-14, 16.0680764907139, 0; !- X,Y,Z Vertex 4 {m}

OS:Surface,
  {c8ef0c64-d6ae-43db-8bb4-248581c8f263}, !- Handle
  Surface 14,                             !- Name
  Wall,                                   !- Surface Type
  ,                                       !- Construction Name
  {09831270-1e83-4d37-8669-f2b925be2b26}, !- Space Name
  Outdoors,                               !- Outside Boundary Condition
  ,                                       !- Outside Boundary Condition Object
  SunExposed,                             !- Sun Exposure
  WindExposed,                            !- Wind Exposure
  ,                                       !- View Factor to Ground
  ,                                       !- Number of Vertices
  2.99999999999999, -3, 4,                !- X,Y,Z Vertex 1 {m}
  2.99999999999999, -3, 0,                !- X,Y,Z Vertex 2 {m}
  2.99999999999999, 19.0680764907139, 0,  !- X,Y,Z Vertex 3 {m}
  2.99999999999999, 19.0680764907139, 4;  !- X,Y,Z Vertex 4 {m}

OS:Surface,
  {c921721d-86d7-4479-a74d-a46adeb2bdb6}, !- Handle
  Surface 15,                             !- Name
  Wall,                                   !- Surface Type
  ,                                       !- Construction Name
  {09831270-1e83-4d37-8669-f2b925be2b26}, !- Space Name
  Surface,                                !- Outside Boundary Condition
  {5abccae0-53cb-4b02-a7b0-550cfb4d7c84}, !- Outside Boundary Condition Object
  NoSun,                                  !- Sun Exposure
  NoWind,                                 !- Wind Exposure
  ,                                       !- View Factor to Ground
  ,                                       !- Number of Vertices
  -1.06581410364015e-14, 0, 4,            !- X,Y,Z Vertex 1 {m}
  -1.06581410364015e-14, 0, 0,            !- X,Y,Z Vertex 2 {m}
  2.99999999999999, -3, 0,                !- X,Y,Z Vertex 3 {m}
  2.99999999999999, -3, 4;                !- X,Y,Z Vertex 4 {m}

OS:Surface,
  {6467806f-8a64-48ae-913c-37c9cb854462}, !- Handle
  Surface 16,                             !- Name
  Wall,                                   !- Surface Type
  ,                                       !- Construction Name
  {09831270-1e83-4d37-8669-f2b925be2b26}, !- Space Name
  Surface,                                !- Outside Boundary Condition
  {7632fef3-c1aa-461e-8d51-bbe77310b4b5}, !- Outside Boundary Condition Object
  NoSun,                                  !- Sun Exposure
  NoWind,                                 !- Wind Exposure
  ,                                       !- View Factor to Ground
  ,                                       !- Number of Vertices
  -1.06581410364015e-14, 16.0680764907139, 4, !- X,Y,Z Vertex 1 {m}
  -1.06581410364015e-14, 16.0680764907139, 0, !- X,Y,Z Vertex 2 {m}
  -1.06581410364015e-14, 0, 0,            !- X,Y,Z Vertex 3 {m}
  -1.06581410364015e-14, 0, 4;            !- X,Y,Z Vertex 4 {m}

OS:Surface,
  {aadfdd80-2c11-4062-88ad-690685abe788}, !- Handle
  Surface 17,                             !- Name
  Wall,                                   !- Surface Type
  ,                                       !- Construction Name
  {09831270-1e83-4d37-8669-f2b925be2b26}, !- Space Name
  Surface,                                !- Outside Boundary Condition
  {a0c6666e-793c-4016-ac65-5fde15c595c7}, !- Outside Boundary Condition Object
  NoSun,                                  !- Sun Exposure
  NoWind,                                 !- Wind Exposure
  ,                                       !- View Factor to Ground
  ,                                       !- Number of Vertices
  2.99999999999999, 19.0680764907139, 4,  !- X,Y,Z Vertex 1 {m}
  2.99999999999999, 19.0680764907139, 0,  !- X,Y,Z Vertex 2 {m}
  -1.06581410364015e-14, 16.0680764907139, 0, !- X,Y,Z Vertex 3 {m}
  -1.06581410364015e-14, 16.0680764907139, 4; !- X,Y,Z Vertex 4 {m}

OS:Surface,
  {3bceadb1-43a9-476b-b951-407c96d7d7fd}, !- Handle
  Surface 18,                             !- Name
  RoofCeiling,                            !- Surface Type
  ,                                       !- Construction Name
  {09831270-1e83-4d37-8669-f2b925be2b26}, !- Space Name
  Outdoors,                               !- Outside Boundary Condition
  ,                                       !- Outside Boundary Condition Object
  SunExposed,                             !- Sun Exposure
  WindExposed,                            !- Wind Exposure
  ,                                       !- View Factor to Ground
  ,                                       !- Number of Vertices
  -1.06581410364015e-14, 16.0680764907139, 4, !- X,Y,Z Vertex 1 {m}
  -1.06581410364015e-14, 0, 4,            !- X,Y,Z Vertex 2 {m}
  2.99999999999999, -3, 4,                !- X,Y,Z Vertex 3 {m}
  2.99999999999999, 19.0680764907139, 4;  !- X,Y,Z Vertex 4 {m}

OS:Space,
  {f3279767-b916-4c81-b0a5-7bc41dc698f2}, !- Handle
  Story 1 South Perimeter Space,          !- Name
  ,                                       !- Space Type Name
  ,                                       !- Default Construction Set Name
  ,                                       !- Default Schedule Set Name
  -0,                                     !- Direction of Relative North {deg}
  0,                                      !- X Origin {m}
  0,                                      !- Y Origin {m}
  0,                                      !- Z Origin {m}
  {efce7c43-b478-4888-b5c4-838a02657a8a}, !- Building Story Name
  {bc53b525-8310-4025-aa28-14c31c4618be}; !- Thermal Zone Name

OS:Surface,
  {588a53f8-8b38-4c9b-96b5-45072b499927}, !- Handle
  Surface 19,                             !- Name
  Floor,                                  !- Surface Type
  ,                                       !- Construction Name
  {f3279767-b916-4c81-b0a5-7bc41dc698f2}, !- Space Name
  Ground,                                 !- Outside Boundary Condition
  ,                                       !- Outside Boundary Condition Object
  NoSun,                                  !- Sun Exposure
  NoWind,                                 !- Wind Exposure
  ,                                       !- View Factor to Ground
  ,                                       !- Number of Vertices
  22.0680764907139, 0, 0,                 !- X,Y,Z Vertex 1 {m}
  0, 0, 0,                                !- X,Y,Z Vertex 2 {m}
  3, 3, 0,                                !- X,Y,Z Vertex 3 {m}
  19.0680764907139, 3, 0;                 !- X,Y,Z Vertex 4 {m}

OS:Surface,
  {79fd3fad-44ed-4f95-b5ab-baefc17b08f4}, !- Handle
  Surface 20,                             !- Name
  Wall,                                   !- Surface Type
  ,                                       !- Construction Name
  {f3279767-b916-4c81-b0a5-7bc41dc698f2}, !- Space Name
  Outdoors,                               !- Outside Boundary Condition
  ,                                       !- Outside Boundary Condition Object
  SunExposed,                             !- Sun Exposure
  WindExposed,                            !- Wind Exposure
  ,                                       !- View Factor to Ground
  ,                                       !- Number of Vertices
  0, 0, 4,                                !- X,Y,Z Vertex 1 {m}
  0, 0, 0,                                !- X,Y,Z Vertex 2 {m}
  22.0680764907139, 0, 0,                 !- X,Y,Z Vertex 3 {m}
  22.0680764907139, 0, 4;                 !- X,Y,Z Vertex 4 {m}

OS:Surface,
  {ed7a7be1-079c-459b-aedd-a4ba016faeb3}, !- Handle
  Surface 21,                             !- Name
  Wall,                                   !- Surface Type
  ,                                       !- Construction Name
  {f3279767-b916-4c81-b0a5-7bc41dc698f2}, !- Space Name
  Surface,                                !- Outside Boundary Condition
  {d44a94c9-b1d2-40e5-8a6a-63c4dd5f0891}, !- Outside Boundary Condition Object
  NoSun,                                  !- Sun Exposure
  NoWind,                                 !- Wind Exposure
  ,                                       !- View Factor to Ground
  ,                                       !- Number of Vertices
  3, 3, 4,                                !- X,Y,Z Vertex 1 {m}
  3, 3, 0,                                !- X,Y,Z Vertex 2 {m}
  0, 0, 0,                                !- X,Y,Z Vertex 3 {m}
  0, 0, 4;                                !- X,Y,Z Vertex 4 {m}

OS:Surface,
  {a584e513-ea63-49a5-9b1f-a651178b3fac}, !- Handle
  Surface 22,                             !- Name
  Wall,                                   !- Surface Type
  ,                                       !- Construction Name
  {f3279767-b916-4c81-b0a5-7bc41dc698f2}, !- Space Name
  Surface,                                !- Outside Boundary Condition
  {76ed06f2-0edd-44ac-8e5a-1b070c3c68f8}, !- Outside Boundary Condition Object
  NoSun,                                  !- Sun Exposure
  NoWind,                                 !- Wind Exposure
  ,                                       !- View Factor to Ground
  ,                                       !- Number of Vertices
  19.0680764907139, 3, 4,                 !- X,Y,Z Vertex 1 {m}
  19.0680764907139, 3, 0,                 !- X,Y,Z Vertex 2 {m}
  3, 3, 0,                                !- X,Y,Z Vertex 3 {m}
  3, 3, 4;                                !- X,Y,Z Vertex 4 {m}

OS:Surface,
  {5abccae0-53cb-4b02-a7b0-550cfb4d7c84}, !- Handle
  Surface 23,                             !- Name
  Wall,                                   !- Surface Type
  ,                                       !- Construction Name
  {f3279767-b916-4c81-b0a5-7bc41dc698f2}, !- Space Name
  Surface,                                !- Outside Boundary Condition
  {c921721d-86d7-4479-a74d-a46adeb2bdb6}, !- Outside Boundary Condition Object
  NoSun,                                  !- Sun Exposure
  NoWind,                                 !- Wind Exposure
  ,                                       !- View Factor to Ground
  ,                                       !- Number of Vertices
  22.0680764907139, 0, 4,                 !- X,Y,Z Vertex 1 {m}
  22.0680764907139, 0, 0,                 !- X,Y,Z Vertex 2 {m}
  19.0680764907139, 3, 0,                 !- X,Y,Z Vertex 3 {m}
  19.0680764907139, 3, 4;                 !- X,Y,Z Vertex 4 {m}

OS:Surface,
  {fc6fbe9d-d9a1-49c3-807f-b736cde36ac1}, !- Handle
  Surface 24,                             !- Name
  RoofCeiling,                            !- Surface Type
  ,                                       !- Construction Name
  {f3279767-b916-4c81-b0a5-7bc41dc698f2}, !- Space Name
  Outdoors,                               !- Outside Boundary Condition
  ,                                       !- Outside Boundary Condition Object
  SunExposed,                             !- Sun Exposure
  WindExposed,                            !- Wind Exposure
  ,                                       !- View Factor to Ground
  ,                                       !- Number of Vertices
  19.0680764907139, 3, 4,                 !- X,Y,Z Vertex 1 {m}
  3, 3, 4,                                !- X,Y,Z Vertex 2 {m}
  0, 0, 4,                                !- X,Y,Z Vertex 3 {m}
  22.0680764907139, 0, 4;                 !- X,Y,Z Vertex 4 {m}

OS:Space,
  {f525463c-8ed8-4136-9f05-2e209969c7ad}, !- Handle
  Story 1 Core Space,                     !- Name
  ,                                       !- Space Type Name
  ,                                       !- Default Construction Set Name
  ,                                       !- Default Schedule Set Name
  -0,                                     !- Direction of Relative North {deg}
  3,                                      !- X Origin {m}
  3,                                      !- Y Origin {m}
  0,                                      !- Z Origin {m}
  {efce7c43-b478-4888-b5c4-838a02657a8a}, !- Building Story Name
  {682a7754-1677-4ee3-8156-5869b0cb1814}; !- Thermal Zone Name

OS:Surface,
  {204b9fab-bd79-42c3-b72e-4754efd2498d}, !- Handle
  Surface 25,                             !- Name
  Floor,                                  !- Surface Type
  ,                                       !- Construction Name
  {f525463c-8ed8-4136-9f05-2e209969c7ad}, !- Space Name
  Ground,                                 !- Outside Boundary Condition
  ,                                       !- Outside Boundary Condition Object
  NoSun,                                  !- Sun Exposure
  NoWind,                                 !- Wind Exposure
  ,                                       !- View Factor to Ground
  ,                                       !- Number of Vertices
  0, 0, 0,                                !- X,Y,Z Vertex 1 {m}
  0, 16.0680764907139, 0,                 !- X,Y,Z Vertex 2 {m}
  16.0680764907139, 16.0680764907139, 0,  !- X,Y,Z Vertex 3 {m}
  16.0680764907139, 0, 0;                 !- X,Y,Z Vertex 4 {m}

OS:Surface,
  {e3316337-b2ee-4ec7-ad1f-223870ead71e}, !- Handle
  Surface 26,                             !- Name
  Wall,                                   !- Surface Type
  ,                                       !- Construction Name
  {f525463c-8ed8-4136-9f05-2e209969c7ad}, !- Space Name
  Surface,                                !- Outside Boundary Condition
  {abcb2fbc-9a85-46ca-a568-42edc81e1ede}, !- Outside Boundary Condition Object
  NoSun,                                  !- Sun Exposure
  NoWind,                                 !- Wind Exposure
  ,                                       !- View Factor to Ground
  ,                                       !- Number of Vertices
  0, 16.0680764907139, 4,                 !- X,Y,Z Vertex 1 {m}
  0, 16.0680764907139, 0,                 !- X,Y,Z Vertex 2 {m}
  0, 0, 0,                                !- X,Y,Z Vertex 3 {m}
  0, 0, 4;                                !- X,Y,Z Vertex 4 {m}

OS:Surface,
  {1f68d6d3-ccd0-47fb-8270-5bc0c090d28b}, !- Handle
  Surface 27,                             !- Name
  Wall,                                   !- Surface Type
  ,                                       !- Construction Name
  {f525463c-8ed8-4136-9f05-2e209969c7ad}, !- Space Name
  Surface,                                !- Outside Boundary Condition
  {642f0b91-7acf-4223-b8f4-18f9286a4c0c}, !- Outside Boundary Condition Object
  NoSun,                                  !- Sun Exposure
  NoWind,                                 !- Wind Exposure
  ,                                       !- View Factor to Ground
  ,                                       !- Number of Vertices
  16.0680764907139, 16.0680764907139, 4,  !- X,Y,Z Vertex 1 {m}
  16.0680764907139, 16.0680764907139, 0,  !- X,Y,Z Vertex 2 {m}
  0, 16.0680764907139, 0,                 !- X,Y,Z Vertex 3 {m}
  0, 16.0680764907139, 4;                 !- X,Y,Z Vertex 4 {m}

OS:Surface,
  {7632fef3-c1aa-461e-8d51-bbe77310b4b5}, !- Handle
  Surface 28,                             !- Name
  Wall,                                   !- Surface Type
  ,                                       !- Construction Name