
OS:Version,
  {5d095f4e-d76e-4981-abef-cc92de0607ba}, !- Handle
  0.10.0;                                 !- Version Identifier

OS:BuildingStory,
  {894e1213-5d10-436d-9832-9c69c8a31d63}, !- Handle
  Story 1,                                !- Name
  0,                                      !- Nominal Z Coordinate {m}
  4,                                      !- Nominal Floor to Floor Height {m}
  ,                                       !- Default Construction Set Name
  ,                                       !- Default Schedule Set Name
  ;                                       !- Group Rendering Name

OS:Space,
  {d65215fb-444a-41d9-a7a0-d9e0c13a02d9}, !- Handle
  Story 1 West Perimeter Space,           !- Name
  ,                                       !- Space Type Name
  ,                                       !- Default Construction Set Name
  ,                                       !- Default Schedule Set Name
  -0,                                     !- Direction of Relative North {deg}
  0,                                      !- X Origin {m}
  0,                                      !- Y Origin {m}
  0,                                      !- Z Origin {m}
  {894e1213-5d10-436d-9832-9c69c8a31d63}, !- Building Story Name
  {956d6cfe-ed80-44c0-992e-202885a4b107}; !- Thermal Zone Name

OS:Surface,
  {1708e608-0916-4bb4-8428-447af386c1d0}, !- Handle
  Surface 1,                              !- Name
  Floor,                                  !- Surface Type
  ,                                       !- Construction Name
  {d65215fb-444a-41d9-a7a0-d9e0c13a02d9}, !- Space Name
  Ground,                                 !- Outside Boundary Condition
  ,                                       !- Outside Boundary Condition Object
  NoSun,                                  !- Sun Exposure
  NoWind,                                 !- Wind Exposure
  ,                                       !- View Factor to Ground
  ,                                       !- Number of Vertices
  0, 0, 0,                                !- X,Y,Z Vertex 1 {m}
  0, 15.8113883008419, 0,                 !- X,Y,Z Vertex 2 {m}
  3, 12.8113883008419, 0,                 !- X,Y,Z Vertex 3 {m}
  3, 3, 0;                                !- X,Y,Z Vertex 4 {m}

OS:Surface,
  {d4be1ab8-006e-435c-a16d-c5756e23259b}, !- Handle
  Surface 2,                              !- Name
  Wall,                                   !- Surface Type
  ,                                       !- Construction Name
  {d65215fb-444a-41d9-a7a0-d9e0c13a02d9}, !- Space Name
  Outdoors,                               !- Outside Boundary Condition
  ,                                       !- Outside Boundary Condition Object
  SunExposed,                             !- Sun Exposure
  WindExposed,                            !- Wind Exposure
  ,                                       !- View Factor to Ground
  ,                                       !- Number of Vertices
  0, 15.8113883008419, 4,                 !- X,Y,Z Vertex 1 {m}
  0, 15.8113883008419, 0,                 !- X,Y,Z Vertex 2 {m}
  0, 0, 0,                                !- X,Y,Z Vertex 3 {m}
  0, 0, 4;                                !- X,Y,Z Vertex 4 {m}

OS:Surface,
  {312b8453-fa21-4de1-b048-f327282a3de0}, !- Handle
  Surface 3,                              !- Name
  Wall,                                   !- Surface Type
  ,                                       !- Construction Name
  {d65215fb-444a-41d9-a7a0-d9e0c13a02d9}, !- Space Name
  Surface,                                !- Outside Boundary Condition
  {764d4739-1236-4d34-adc0-b6e090624f25}, !- Outside Boundary Condition Object
  NoSun,                                  !- Sun Exposure
  NoWind,                                 !- Wind Exposure
  ,                                       !- View Factor to Ground
  ,                                       !- Number of Vertices
  3, 12.8113883008419, 4,                 !- X,Y,Z Vertex 1 {m}
  3, 12.8113883008419, 0,                 !- X,Y,Z Vertex 2 {m}
  0, 15.8113883008419, 0,                 !- X,Y,Z Vertex 3 {m}
  0, 15.8113883008419, 4;                 !- X,Y,Z Vertex 4 {m}

OS:Surface,
  {ca6e71c8-7db6-4272-b176-c7283266c59e}, !- Handle
  Surface 4,                              !- Name
  Wall,                                   !- Surface Type
  ,                                       !- Construction Name
  {d65215fb-444a-41d9-a7a0-d9e0c13a02d9}, !- Space Name
  Surface,                                !- Outside Boundary Condition
  {81f856f1-1b66-48c4-ab78-9cc9109d7f58}, !- Outside Boundary Condition Object
  NoSun,                                  !- Sun Exposure
  NoWind,                                 !- Wind Exposure
  ,                                       !- View Factor to Ground
  ,                                       !- Number of Vertices
  3, 3, 4,                                !- X,Y,Z Vertex 1 {m}
  3, 3, 0,                                !- X,Y,Z Vertex 2 {m}
  3, 12.8113883008419, 0,                 !- X,Y,Z Vertex 3 {m}
  3, 12.8113883008419, 4;                 !- X,Y,Z Vertex 4 {m}

OS:Surface,
  {d11bed17-583f-4da2-812f-b0f1faafacdc}, !- Handle
  Surface 5,                              !- Name
  Wall,                                   !- Surface Type
  ,                                       !- Construction Name
  {d65215fb-444a-41d9-a7a0-d9e0c13a02d9}, !- Space Name
  Surface,                                !- Outside Boundary Condition
  {babc267a-a890-4160-8076-6a9b2fb4f87c}, !- Outside Boundary Condition Object
  NoSun,                                  !- Sun Exposure
  NoWind,                                 !- Wind Exposure
  ,                                       !- View Factor to Ground
  ,                                       !- Number of Vertices
  0, 0, 4,                                !- X,Y,Z Vertex 1 {m}
  0, 0, 0,                                !- X,Y,Z Vertex 2 {m}
  3, 3, 0,                                !- X,Y,Z Vertex 3 {m}
  3, 3, 4;                                !- X,Y,Z Vertex 4 {m}

OS:Surface,
  {cff1e0fd-4bb8-4d90-86bd-d8bd8b6467f5}, !- Handle
  Surface 6,                              !- Name
  RoofCeiling,                            !- Surface Type
  ,                                       !- Construction Name
  {d65215fb-444a-41d9-a7a0-d9e0c13a02d9}, !- Space Name
  Surface,                                !- Outside Boundary Condition
  {b6e2b5ce-82b1-41f8-893d-8cef408cea2a}, !- Outside Boundary Condition Object
  NoSun,                                  !- Sun Exposure
  NoWind,                                 !- Wind Exposure
  ,                                       !- View Factor to Ground
  ,                                       !- Number of Vertices
  3, 3, 4,                                !- X,Y,Z Vertex 1 {m}
  3, 12.8113883008419, 4,                 !- X,Y,Z Vertex 2 {m}
  0, 15.8113883008419, 4,                 !- X,Y,Z Vertex 3 {m}
  0, 0, 4;                                !- X,Y,Z Vertex 4 {m}

OS:Space,
  {cf0e25b2-a672-4221-b95f-21e9cced4e14}, !- Handle
  Story 1 North Perimeter Space,          !- Name
  ,                                       !- Space Type Name
  ,                                       !- Default Construction Set Name
  ,                                       !- Default Schedule Set Name
  -0,                                     !- Direction of Relative North {deg}
  3,                                      !- X Origin {m}
  12.8113883008419,                       !- Y Origin {m}
  0,                                      !- Z Origin {m}
  {894e1213-5d10-436d-9832-9c69c8a31d63}, !- Building Story Name
  {6162d79b-1070-4124-b79c-8bcfc116b356}; !- Thermal Zone Name

OS:Surface,
  {f4302a1c-6ef0-49d3-a658-5e976a7f95aa}, !- Handle
  Surface 7,                              !- Name
  Floor,                                  !- Surface Type
  ,                                       !- Construction Name
  {cf0e25b2-a672-4221-b95f-21e9cced4e14}, !- Space Name
  Ground,                                 !- Outside Boundary Condition
  ,                                       !- Outside Boundary Condition Object
  NoSun,                                  !- Sun Exposure
  NoWind,                                 !- Wind Exposure
  ,                                       !- View Factor to Ground
  ,                                       !- Number of Vertices
  -3, 3, 0,                               !- X,Y,Z Vertex 1 {m}
  12.8113883008419, 3, 0,                 !- X,Y,Z Vertex 2 {m}
  9.8113883008419, 3.5527136788005e-15, 0, !- X,Y,Z Vertex 3 {m}
  0, 3.5527136788005e-15, 0;              !- X,Y,Z Vertex 4 {m}

OS:Surface,
  {3503f82a-c2ca-4cea-9a59-fd0ab4db220b}, !- Handle
  Surface 8,                              !- Name
  Wall,                                   !- Surface Type
  ,                                       !- Construction Name
  {cf0e25b2-a672-4221-b95f-21e9cced4e14}, !- Space Name
  Outdoors,                               !- Outside Boundary Condition
  ,                                       !- Outside Boundary Condition Object
  SunExposed,                             !- Sun Exposure
  WindExposed,                            !- Wind Exposure
  ,                                       !- View Factor to Ground
  ,                                       !- Number of Vertices
  12.8113883008419, 3, 4,                 !- X,Y,Z Vertex 1 {m}
  12.8113883008419, 3, 0,                 !- X,Y,Z Vertex 2 {m}
  -3, 3, 0,                               !- X,Y,Z Vertex 3 {m}
  -3, 3, 4;                               !- X,Y,Z Vertex 4 {m}

OS:Surface,
  {4a36996a-ab81-4b65-bc86-6bf86a85b658}, !- Handle
  Surface 9,                              !- Name
  Wall,                                   !- Surface Type
  ,                                       !- Construction Name
  {cf0e25b2-a672-4221-b95f-21e9cced4e14}, !- Space Name
  Surface,                                !- Outside Boundary Condition
  {1c2f6a1d-25cb-4acf-8deb-f6ad298153cc}, !- Outside Boundary Condition Object
  NoSun,                                  !- Sun Exposure
  NoWind,                                 !- Wind Exposure
  ,                                       !- View Factor to Ground
  ,                                       !- Number of Vertices
  9.8113883008419, 3.5527136788005e-15, 4, !- X,Y,Z Vertex 1 {m}
  9.8113883008419, 3.5527136788005e-15, 0, !- X,Y,Z Vertex 2 {m}
  12.8113883008419, 3, 0,                 !- X,Y,Z Vertex 3 {m}
  12.8113883008419, 3, 4;                 !- X,Y,Z Vertex 4 {m}

OS:Surface,
  {591d28bc-9c13-4722-a11c-7ad020f0d4e7}, !- Handle
  Surface 10,                             !- Name
  Wall,                                   !- Surface Type
  ,                                       !- Construction Name
  {cf0e25b2-a672-4221-b95f-21e9cced4e14}, !- Space Name
  Surface,                                !- Outside Boundary Condition
  {e1e6ad57-a85c-4e25-a53c-12eee2058a5a}, !- Outside Boundary Condition Object
  NoSun,                                  !- Sun Exposure
  NoWind,                                 !- Wind Exposure
  ,                                       !- View Factor to Ground
  ,                                       !- Number of Vertices
  0, 3.5527136788005e-15, 4,              !- X,Y,Z Vertex 1 {m}
  0, 3.5527136788005e-15, 0,              !- X,Y,Z Vertex 2 {m}
  9.8113883008419, 3.5527136788005e-15, 0, !- X,Y,Z Vertex 3 {m}
  9.8113883008419, 3.5527136788005e-15, 4; !- X,Y,Z Vertex 4 {m}

OS:Surface,
  {764d4739-1236-4d34-adc0-b6e090624f25}, !- Handle
  Surface 11,                             !- Name
  Wall,                                   !- Surface Type
  ,                                       !- Construction Name
  {cf0e25b2-a672-4221-b95f-21e9cced4e14}, !- Space Name
  Surface,                                !- Outside Boundary Condition
  {312b8453-fa21-4de1-b048-f327282a3de0}, !- Outside Boundary Condition Object
  NoSun,                                  !- Sun Exposure
  NoWind,                                 !- Wind Exposure
  ,                                       !- View Factor to Ground
  ,                                       !- Number of Vertices
  -3, 3, 4,                               !- X,Y,Z Vertex 1 {m}
  -3, 3, 0,                               !- X,Y,Z Vertex 2 {m}
  0, 3.5527136788005e-15, 0,              !- X,Y,Z Vertex 3 {m}
  0, 3.5527136788005e-15, 4;              !- X,Y,Z Vertex 4 {m}

OS:Surface,
  {57d436d0-bf7c-4f80-b902-5a03859672f3}, !- Handle
  Surface 12,                             !- Name
  RoofCeiling,                            !- Surface Type
  ,                                       !- Construction Name
  {cf0e25b2-a672-4221-b95f-21e9cced4e14}, !- Space Name
  Surface,                                !- Outside Boundary Condition
  {e0ec3b05-fc69-4489-83c0-2fba331134f8}, !- Outside Boundary Condition Object
  NoSun,                                  !- Sun Exposure
  NoWind,                                 !- Wind Exposure
  ,                                       !- View Factor to Ground
  ,                                       !- Number of Vertices
  0, 3.5527136788005e-15, 4,              !- X,Y,Z Vertex 1 {m}
  9.8113883008419, 3.5527136788005e-15, 4, !- X,Y,Z Vertex 2 {m}
  12.8113883008419, 3, 4,                 !- X,Y,Z Vertex 3 {m}
  -3, 3, 4;                               !- X,Y,Z Vertex 4 {m}

OS:Space,
  {10bdbb51-5e98-4e5c-b7bb-6247ea391606}, !- Handle
  Story 1 East Perimeter Space,           !- Name
  ,                                       !- Space Type Name
  ,                                       !- Default Construction Set Name
  ,                                       !- Default Schedule Set Name
  -0,                                     !- Direction of Relative North {deg}
  12.8113883008419,                       !- X Origin {m}
  3,                                      !- Y Origin {m}
  0,                                      !- Z Origin {m}
  {894e1213-5d10-436d-9832-9c69c8a31d63}, !- Building Story Name
  {d6caca88-e851-4079-9c88-04ced2b22354}; !- Thermal Zone Name

OS:Surface,
  {cf6be67d-6c80-4478-bf5c-885bea63bfcb}, !- Handle
  Surface 13,                             !- Name
  Floor,                                  !- Surface Type
  ,                                       !- Construction Name
  {10bdbb51-5e98-4e5c-b7bb-6247ea391606}, !- Space Name
  Ground,                                 !- Outside Boundary Condition
  ,                                       !- Outside Boundary Condition Object
  NoSun,                                  !- Sun Exposure
  NoWind,                                 !- Wind Exposure
  ,                                       !- View Factor to Ground
  ,                                       !- Number of Vertices
  3, 12.8113883008419, 0,                 !- X,Y,Z Vertex 1 {m}
  3, -3, 0,                               !- X,Y,Z Vertex 2 {m}
  3.5527136788005e-15, 0, 0,              !- X,Y,Z Vertex 3 {m}
  3.5527136788005e-15, 9.8113883008419, 0; !- X,Y,Z Vertex 4 {m}

OS:Surface,
  {e062100d-caca-44ad-a4af-fc09c16cb3c7}, !- Handle
  Surface 14,                             !- Name
  Wall,                                   !- Surface Type
  ,                                       !- Construction Name
  {10bdbb51-5e98-4e5c-b7bb-6247ea391606}, !- Space Name
  Outdoors,                               !- Outside Boundary Condition
  ,                                       !- Outside Boundary Condition Object
  SunExposed,                             !- Sun Exposure
  WindExposed,                            !- Wind Exposure
  ,                                       !- View Factor to Ground
  ,                                       !- Number of Vertices
  3, -3, 4,                               !- X,Y,Z Vertex 1 {m}
  3, -3, 0,                               !- X,Y,Z Vertex 2 {m}
  3, 12.8113883008419, 0,                 !- X,Y,Z Vertex 3 {m}
  3, 12.8113883008419, 4;                 !- X,Y,Z Vertex 4 {m}

OS:Surface,
  {bfc102f8-42f7-45df-9725-1601bdd20c29}, !- Handle
  Surface 15,                             !- Name
  Wall,                                   !- Surface Type
  ,                                       !- Construction Name
  {10bdbb51-5e98-4e5c-b7bb-6247ea391606}, !- Space Name
  Surface,                                !- Outside Boundary Condition
  {dfc679af-8b46-4aac-95cc-54347e964d8f}, !- Outside Boundary Condition Object
  NoSun,                                  !- Sun Exposure
  NoWind,                                 !- Wind Exposure
  ,                                       !- View Factor to Ground
  ,                                       !- Number of Vertices
  3.5527136788005e-15, 0, 4,              !- X,Y,Z Vertex 1 {m}
  3.5527136788005e-15, 0, 0,              !- X,Y,Z Vertex 2 {m}
  3, -3, 0,                               !- X,Y,Z Vertex 3 {m}
  3, -3, 4;                               !- X,Y,Z Vertex 4 {m}

OS:Surface,
  {a2b85967-27b0-4a61-905b-2ff03ed55bdb}, !- Handle
  Surface 16,                             !- Name
  Wall,                                   !- Surface Type
  ,                                       !- Construction Name
  {10bdbb51-5e98-4e5c-b7bb-6247ea391606}, !- Space Name
  Surface,                                !- Outside Boundary Condition
  {a4d811b0-8d4f-4fc4-9b8d-82b9a40ef35e}, !- Outside Boundary Condition Object
  NoSun,                                  !- Sun Exposure
  NoWind,                                 !- Wind Exposure
  ,                                       !- View Factor to Ground
  ,                                       !- Number of Vertices
  3.5527136788005e-15, 9.8113883008419, 4, !- X,Y,Z Vertex 1 {m}
  3.5527136788005e-15, 9.8113883008419, 0, !- X,Y,Z Vertex 2 {m}
  3.5527136788005e-15, 0, 0,              !- X,Y,Z Vertex 3 {m}
  3.5527136788005e-15, 0, 4;              !- X,Y,Z Vertex 4 {m}

OS:Surface,
  {1c2f6a1d-25cb-4acf-8deb-f6ad298153cc}, !- Handle
  Surface 17,                             !- Name
  Wall,                                   !- Surface Type
  ,                                       !- Construction Name
  {10bdbb51-5e98-4e5c-b7bb-6247ea391606}, !- Space Name
  Surface,                                !- Outside Boundary Condition
  {4a36996a-ab81-4b65-bc86-6bf86a85b658}, !- Outside Boundary Condition Object
  NoSun,                                  !- Sun Exposure
  NoWind,                                 !- Wind Exposure
  ,                                       !- View Factor to Ground
  ,                                       !- Number of Vertices
  3, 12.8113883008419, 4,                 !- X,Y,Z Vertex 1 {m}
  3, 12.8113883008419, 0,                 !- X,Y,Z Vertex 2 {m}
  3.5527136788005e-15, 9.8113883008419, 0, !- X,Y,Z Vertex 3 {m}
  3.5527136788005e-15, 9.8113883008419, 4; !- X,Y,Z Vertex 4 {m}

OS:Surface,
  {b3afa003-5d9b-4f99-82fd-54dc369387b7}, !- Handle
  Surface 18,                             !- Name
  RoofCeiling,                            !- Surface Type
  ,                                       !- Construction Name
  {10bdbb51-5e98-4e5c-b7bb-6247ea391606}, !- Space Name
  Surface,                                !- Outside Boundary Condition
  {f57f014c-bfb5-4a3b-86dd-7c73409f2e89}, !- Outside Boundary Condition Object
  NoSun,                                  !- Sun Exposure
  NoWind,                                 !- Wind Exposure
  ,                                       !- View Factor to Ground
  ,                                       !- Number of Vertices
  3.5527136788005e-15, 9.8113883008419, 4, !- X,Y,Z Vertex 1 {m}
  3.5527136788005e-15, 0, 4,              !- X,Y,Z Vertex 2 {m}
  3, -3, 4,                               !- X,Y,Z Vertex 3 {m}
  3, 12.8113883008419, 4;                 !- X,Y,Z Vertex 4 {m}

OS:Space,
  {bfe9ebb6-dcbd-43be-8101-692061317313}, !- Handle
  Story 1 South Perimeter Space,          !- Name
  ,                                       !- Space Type Name
  ,                                       !- Default Construction Set Name
  ,                                       !- Default Schedule Set Name
  -0,                                     !- Direction of Relative North {deg}
  0,                                      !- X Origin {m}
  0,                                      !- Y Origin {m}
  0,                                      !- Z Origin {m}
  {894e1213-5d10-436d-9832-9c69c8a31d63}, !- Building Story Name
  {2f17f59e-a74d-4959-b0a7-1951b394c436}; !- Thermal Zone Name

OS:Surface,
  {afe8e3c8-b485-415d-8d8d-b146d421ce3d}, !- Handle
  Surface 19,                             !- Name
  Floor,                                  !- Surface Type
  ,                                       !- Construction Name
  {bfe9ebb6-dcbd-43be-8101-692061317313}, !- Space Name
  Ground,                                 !- Outside Boundary Condition
  ,                                       !- Outside Boundary Condition Object
  NoSun,                                  !- Sun Exposure
  NoWind,                                 !- Wind Exposure
  ,                                       !- View Factor to Ground
  ,                                       !- Number of Vertices
  15.8113883008419, 0, 0,                 !- X,Y,Z Vertex 1 {m}
  0, 0, 0,                                !- X,Y,Z Vertex 2 {m}
  3, 3, 0,                                !- X,Y,Z Vertex 3 {m}
  12.8113883008419, 3, 0;                 !- X,Y,Z Vertex 4 {m}

OS:Surface,
  {74c7a91e-0b67-4d7a-875d-0b1aa128aabd}, !- Handle
  Surface 20,                             !- Name
  Wall,                                   !- Surface Type
  ,                                       !- Construction Name
  {bfe9ebb6-dcbd-43be-8101-692061317313}, !- Space Name
  Outdoors,                               !- Outside Boundary Condition
  ,                                       !- Outside Boundary Condition Object
  SunExposed,                             !- Sun Exposure
  WindExposed,                            !- Wind Exposure
  ,                                       !- View Factor to Ground
  ,                                       !- Number of Vertices
  0, 0, 4,                                !- X,Y,Z Vertex 1 {m}
  0, 0, 0,                                !- X,Y,Z Vertex 2 {m}
  15.8113883008419, 0, 0,                 !- X,Y,Z Vertex 3 {m}
  15.8113883008419, 0, 4;                 !- X,Y,Z Vertex 4 {m}

OS:Surface,
  {babc267a-a890-4160-8076-6a9b2fb4f87c}, !- Handle
  Surface 21,                             !- Name
  Wall,                                   !- Surface Type
  ,                                       !- Construction Name
  {bfe9ebb6-dcbd-43be-8101-692061317313}, !- Space Name
  Surface,                                !- Outside Boundary Condition
  {d11bed17-583f-4da2-812f-b0f1faafacdc}, !- Outside Boundary Condition Object
  NoSun,                                  !- Sun Exposure
  NoWind,                                 !- Wind Exposure
  ,                                       !- View Factor to Ground
  ,                                       !- Number of Vertices
  3, 3, 4,                                !- X,Y,Z Vertex 1 {m}
  3, 3, 0,                                !- X,Y,Z Vertex 2 {m}
  0, 0, 0,                                !- X,Y,Z Vertex 3 {m}
  0, 0, 4;                                !- X,Y,Z Vertex 4 {m}

OS:Surface,
  {7fd81ad5-cb2a-4983-8a34-31a696b1e66b}, !- Handle
  Surface 22,                             !- Name
  Wall,                                   !- Surface Type
  ,                                       !- Construction Name
  {bfe9ebb6-dcbd-43be-8101-692061317313}, !- Space Name
  Surface,                                !- Outside Boundary Condition
  {4e4ffcdc-1115-4791-8c5f-c1a75c4b7eb9}, !- Outside Boundary Condition Object
  NoSun,                                  !- Sun Exposure
  NoWind,                                 !- Wind Exposure
  ,                                       !- View Factor to Ground
  ,                                       !- Number of Vertices
  12.8113883008419, 3, 4,                 !- X,Y,Z Vertex 1 {m}
  12.8113883008419, 3, 0,                 !- X,Y,Z Vertex 2 {m}
  3, 3, 0,                                !- X,Y,Z Vertex 3 {m}
  3, 3, 4;                                !- X,Y,Z Vertex 4 {m}

OS:Surface,
  {dfc679af-8b46-4aac-95cc-54347e964d8f}, !- Handle
  Surface 23,                             !- Name
  Wall,                                   !- Surface Type
  ,                                       !- Construction Name
  {bfe9ebb6-dcbd-43be-8101-692061317313}, !- Space Name
  Surface,                                !- Outside Boundary Condition
  {bfc102f8-42f7-45df-9725-1601bdd20c29}, !- Outside Boundary Condition Object
  NoSun,                                  !- Sun Exposure
  NoWind,                                 !- Wind Exposure
  ,                                       !- View Factor to Ground
  ,                                       !- Number of Vertices
  15.8113883008419, 0, 4,                 !- X,Y,Z Vertex 1 {m}
  15.8113883008419, 0, 0,                 !- X,Y,Z Vertex 2 {m}
  12.8113883008419, 3, 0,                 !- X,Y,Z Vertex 3 {m}
  12.8113883008419, 3, 4;                 !- X,Y,Z Vertex 4 {m}

OS:Surface,
  {ef639a34-d261-4af8-89c5-953f08530128}, !- Handle
  Surface 24,                             !- Name
  RoofCeiling,                            !- Surface Type
  ,                                       !- Construction Name
  {bfe9ebb6-dcbd-43be-8101-692061317313}, !- Space Name
  Surface,                                !- Outside Boundary Condition
  {0fbd4300-bd03-41e2-9ae4-9f1b4fca7e7f}, !- Outside Boundary Condition Object
  NoSun,                                  !- Sun Exposure
  NoWind,                                 !- Wind Exposure
  ,                                       !- View Factor to Ground
  ,                                       !- Number of Vertices
  12.8113883008419, 3, 4,                 !- X,Y,Z Vertex 1 {m}
  3, 3, 4,                                !- X,Y,Z Vertex 2 {m}
  0, 0, 4,                                !- X,Y,Z Vertex 3 {m}
  15.8113883008419, 0, 4;                 !- X,Y,Z Vertex 4 {m}

OS:Space,
  {5fbdd0a1-d745-46dc-b555-ba7bec5f9a33}, !- Handle
  Story 1 Core Space,                     !- Name
  ,                                       !- Space Type Name
  ,                                       !- Default Construction Set Name
  ,                                       !- Default Schedule Set Name
  -0,                                     !- Direction of Relative North {deg}
  3,                                      !- X Origin {m}
  3,                                      !- Y Origin {m}
  0,                                      !- Z Origin {m}
  {894e1213-5d10-436d-9832-9c69c8a31d63}, !- Building Story Name
  {5b61e6e1-1117-4d90-99cd-08d6b643fdd9}; !- Thermal Zone Name

OS:Surface,
  {cf3e7f6b-9979-4ba6-a550-02892c699cf8}, !- Handle
  Surface 25,                             !- Name
  Floor,                                  !- Surface Type
  ,                                       !- Construction Name
  {5fbdd0a1-d745-46dc-b555-ba7bec5f9a33}, !- Space Name
  Ground,                                 !- Outside Boundary Condition
  ,                                       !- Outside Boundary Condition Object
  NoSun,                                  !- Sun Exposure
  NoWind,                                 !- Wind Exposure
  ,                                       !- View Factor to Ground
  ,                                       !- Number of Vertices
  0, 0, 0,                                !- X,Y,Z Vertex 1 {m}
  0, 9.8113883008419, 0,                  !- X,Y,Z Vertex 2 {m}
  9.8113883008419, 9.8113883008419, 0,    !- X,Y,Z Vertex 3 {m}
  9.8113883008419, 0, 0;                  !- X,Y,Z Vertex 4 {m}

OS:Surface,
  {81f856f1-1b66-48c4-ab78-9cc9109d7f58}, !- Handle
  Surface 26,                             !- Name
  Wall,                                   !- Surface Type
  ,                                       !- Construction Name
  {5fbdd0a1-d745-46dc-b555-ba7bec5f9a33}, !- Space Name
  Surface,                                !- Outside Boundary Condition
  {ca6e71c8-7db6-4272-b176-c7283266c59e}, !- Outside Boundary Condition Object
  NoSun,                                  !- Sun Exposure
  NoWind,                                 !- Wind Exposure
  ,                                       !- View Factor to Ground
  ,                                       !- Number of Vertices
  0, 9.8113883008419, 4,                  !- X,Y,Z Vertex 1 {m}
  0, 9.8113883008419, 0,                  !- X,Y,Z Vertex 2 {m}
  0, 0, 0,                                !- X,Y,Z Vertex 3 {m}
  0, 0, 4;                                !- X,Y,Z Vertex 4 {m}

OS:Surface,
  {e1e6ad57-a85c-4e25-a53c-12eee2058a5a}, !- Handle
  Surface 27,                             !- Name
  Wall,                                   !- Surface Type
  ,                                       !- Construction Name
  {5fbdd0a1-d745-46dc-b555-ba7bec5f9a33}, !- Space Name
  Surface,                                !- Outside Boundary Condition
  {591d28bc-9c13-4722-a11c-7ad020f0d4e7}, !- Outside Boundary Condition Object
  NoSun,                                  !- Sun Exposure
  NoWind,                                 !- Wind Exposure
  ,                                       !- View Factor to Ground
  ,                                       !- Number of Vertices
  9.8113883008419, 9.8113883008419, 4,    !- X,Y,Z Vertex 1 {m}
  9.8113883008419, 9.8113883008419, 0,    !- X,Y,Z Vertex 2 {m}
  0, 9.8113883008419, 0,                  !- X,Y,Z Vertex 3 {m}
  0, 9.8113883008419, 4;                  !- X,Y,Z Vertex 4 {m}

OS:Surface,
  {a4d811b0-8d4f-4fc4-9b8d-82b9a40ef35e}, !- Handle
  Surface 28,                             !- Name
  Wall,                                   !- Surface Type
  ,                                       !- Construction Name
  {5fbdd0a1-d745-46dc-b555-ba7bec5f9a33}, !- Space Name