
OS:Version,
  {ae95bc97-fe92-44be-9ea6-169fc9507b5b}, !- Handle
  0.10.0;                                 !- Version Identifier

OS:BuildingStory,
  {1052f6a9-3f67-4f24-b328-89e1adea7a86}, !- Handle
  Story 1,                                !- Name
  0,                                      !- Nominal Z Coordinate {m}
  4,                                      !- Nominal Floor to Floor Height {m}
  ,                                       !- Default Construction Set Name
  ,                                       !- Default Schedule Set Name
  ;                                       !- Group Rendering Name

OS:Space,
  {0c1a6934-3e75-4e2d-a256-54fcd61a6e46}, !- Handle
  Story 1 West Perimeter Space,           !- Name
  ,                                       !- Space Type Name
  ,                                       !- Default Construction Set Name
  ,                                       !- Default Schedule Set Name
  -0,                                     !- Direction of Relative North {deg}
  0,                                      !- X Origin {m}
  0,                                      !- Y Origin {m}
  0,                                      !- Z Origin {m}
  {1052f6a9-3f67-4f24-b328-89e1adea7a86}, !- Building Story Name
  {a601e8ae-dd60-4a35-a9d6-7e0306e9e562}; !- Thermal Zone Name

OS:Surface,
  {c065a28c-40f9-40e1-863f-b8551598d0f7}, !- Handle
  Surface 1,                              !- Name
  Floor,                                  !- Surface Type
  ,                                       !- Construction Name
  {0c1a6934-3e75-4e2d-a256-54fcd61a6e46}, !- Space Name
  Ground,                                 !- Outside Boundary Condition
  ,                                       !- Outside Boundary Condition Object
  NoSun,                                  !- Sun Exposure
  NoWind,                                 !- Wind Exposure
  ,                                       !- View Factor to Ground
  ,                                       !- Number of Vertices
  0, 0, 0,                                !- X,Y,Z Vertex 1 {m}
  0, 28.2807354925575, 0,                 !- X,Y,Z Vertex 2 {m}
  3, 25.2807354925575, 0,                 !- X,Y,Z Vertex 3 {m}
  3, 3, 0;                                !- X,Y,Z Vertex 4 {m}

OS:Surface,
  {5df30eac-6a95-4055-9f52-390628dc5806}, !- Handle
  Surface 2,                              !- Name
  Wall,                                   !- Surface Type
  ,                                       !- Construction Name
  {0c1a6934-3e75-4e2d-a256-54fcd61a6e46}, !- Space Name
  Outdoors,                               !- Outside Boundary Condition
  ,                                       !- Outside Boundary Condition Object
  SunExposed,                             !- Sun Exposure
  WindExposed,                            !- Wind Exposure
  ,                                       !- View Factor to Ground
  ,                                       !- Number of Vertices
  0, 28.2807354925575, 4,                 !- X,Y,Z Vertex 1 {m}
  0, 28.2807354925575, 0,                 !- X,Y,Z Vertex 2 {m}
  0, 0, 0,                                !- X,Y,Z Vertex 3 {m}
  0, 0, 4;                                !- X,Y,Z Vertex 4 {m}

OS:Surface,
  {4894d039-3d3e-49e3-b2a8-9c5f6fc62fbd}, !- Handle
  Surface 3,                              !- Name
  Wall,                                   !- Surface Type
  ,                                       !- Construction Name
  {0c1a6934-3e75-4e2d-a256-54fcd61a6e46}, !- Space Name
  Surface,                                !- Outside Boundary Condition
  {dc7407c7-f636-44cd-976a-a1a0ff7dc508}, !- Outside Boundary Condition Object
  NoSun,                                  !- Sun Exposure
  NoWind,                                 !- Wind Exposure
  ,                                       !- View Factor to Ground
  ,                                       !- Number of Vertices
  3, 25.2807354925575, 4,                 !- X,Y,Z Vertex 1 {m}
  3, 25.2807354925575, 0,                 !- X,Y,Z Vertex 2 {m}
  0, 28.2807354925575, 0,                 !- X,Y,Z Vertex 3 {m}
  0, 28.2807354925575, 4;                 !- X,Y,Z Vertex 4 {m}

OS:Surface,
  {da6039d9-3c63-49e2-9f5c-862bbdb5f780}, !- Handle
  Surface 4,                              !- Name
  Wall,                                   !- Surface Type
  ,                                       !- Construction Name
  {0c1a6934-3e75-4e2d-a256-54fcd61a6e46}, !- Space Name
  Surface,                                !- Outside Boundary Condition
  {cc604648-a586-4b83-af3a-19c57ec7e7d5}, !- Outside Boundary Condition Object
  NoSun,                                  !- Sun Exposure
  NoWind,                                 !- Wind Exposure
  ,                                       !- View Factor to Ground
  ,                                       !- Number of Vertices
  3, 3, 4,                                !- X,Y,Z Vertex 1 {m}
  3, 3, 0,                                !- X,Y,Z Vertex 2 {m}
  3, 25.2807354925575, 0,                 !- X,Y,Z Vertex 3 {m}
  3, 25.2807354925575, 4;                 !- X,Y,Z Vertex 4 {m}

OS:Surface,
  {71b8916e-d4dd-4bf1-8bf0-3c1ba1a58d09}, !- Handle
  Surface 5,                              !- Name
  Wall,                                   !- Surface Type
  ,                                       !- Construction Name
  {0c1a6934-3e75-4e2d-a256-54fcd61a6e46}, !- Space Name
  Surface,                                !- Outside Boundary Condition
  {91381f39-8d17-4ef0-9aac-e09d77ee3cf4}, !- Outside Boundary Condition Object
  NoSun,                                  !- Sun Exposure
  NoWind,                                 !- Wind Exposure
  ,                                       !- View Factor to Ground
  ,                                       !- Number of Vertices
  0, 0, 4,                                !- X,Y,Z Vertex 1 {m}
  0, 0, 0,                                !- X,Y,Z Vertex 2 {m}
  3, 3, 0,                                !- X,Y,Z Vertex 3 {m}
  3, 3, 4;                                !- X,Y,Z Vertex 4 {m}

OS:Surface,
  {c8762a6c-095a-4965-99ce-7d036aa4e1ba}, !- Handle
  Surface 6,                              !- Name
  RoofCeiling,                            !- Surface Type
  ,                                       !- Construction Name
  {0c1a6934-3e75-4e2d-a256-54fcd61a6e46}, !- Space Name
  Surface,                                !- Outside Boundary Condition
  {c4f823f9-5704-417b-8787-6cdbf6aa139a}, !- Outside Boundary Condition Object
  NoSun,                                  !- Sun Exposure
  NoWind,                                 !- Wind Exposure
  ,                                       !- View Factor to Ground
  ,                                       !- Number of Vertices
  3, 3, 4,                                !- X,Y,Z Vertex 1 {m}
  3, 25.2807354925575, 4,                 !- X,Y,Z Vertex 2 {m}
  0, 28.2807354925575, 4,                 !- X,Y,Z Vertex 3 {m}
  0, 0, 4;                                !- X,Y,Z Vertex 4 {m}

OS:Space,
  {ab43664b-d5b0-4ebc-9cde-15a883289932}, !- Handle
  Story 1 North Perimeter Space,          !- Name
  ,                                       !- Space Type Name
  ,                                       !- Default Construction Set Name
  ,                                       !- Default Schedule Set Name
  -0,                                     !- Direction of Relative North {deg}
  3,                                      !- X Origin {m}
  25.2807354925575,                       !- Y Origin {m}
  0,                                      !- Z Origin {m}
  {1052f6a9-3f67-4f24-b328-89e1adea7a86}, !- Building Story Name
  {fbb5189f-a88d-4180-98e7-73aee4a5b537}; !- Thermal Zone Name

OS:Surface,
  {d5aa7c08-6c5b-4dc2-b833-b1773902eb1e}, !- Handle
  Surface 7,                              !- Name
  Floor,                                  !- Surface Type
  ,                                       !- Construction Name
  {ab43664b-d5b0-4ebc-9cde-15a883289932}, !- Space Name
  Ground,                                 !- Outside Boundary Condition
  ,                                       !- Outside Boundary Condition Object
  NoSun,                                  !- Sun Exposure
  NoWind,                                 !- Wind Exposure
  ,                                       !- View Factor to Ground
  ,                                       !- Number of Vertices
  -3, 3.00000000000003, 0,                !- X,Y,Z Vertex 1 {m}
  25.2807354925575, 3.00000000000003, 0,  !- X,Y,Z Vertex 2 {m}
  22.2807354925575, 2.8421709430404e-14, 0, !- X,Y,Z Vertex 3 {m}
  0, 2.8421709430404e-14, 0;              !- X,Y,Z Vertex 4 {m}

OS:Surface,
  {35fd8ba5-9981-4ac2-ab93-85106c14c7a2}, !- Handle
  Surface 8,                              !- Name
  Wall,                                   !- Surface Type
  ,                                       !- Construction Name
  {ab43664b-d5b0-4ebc-9cde-15a883289932}, !- Space Name
  Outdoors,                               !- Outside Boundary Condition
  ,                                       !- Outside Boundary Condition Object
  SunExposed,                             !- Sun Exposure
  WindExposed,                            !- Wind Exposure
  ,                                       !- View Factor to Ground
  ,                                       !- Number of Vertices
  25.2807354925575, 3.00000000000003, 4,  !- X,Y,Z Vertex 1 {m}
  25.2807354925575, 3.00000000000003, 0,  !- X,Y,Z Vertex 2 {m}
  -3, 3.00000000000003, 0,                !- X,Y,Z Vertex 3 {m}
  -3, 3.00000000000003, 4;                !- X,Y,Z Vertex 4 {m}

OS:Surface,
  {4a1512cb-2e85-4dbf-be68-2efddcafcddb}, !- Handle
  Surface 9,                              !- Name
  Wall,                                   !- Surface Type
  ,                                       !- Construction Name
  {ab43664b-d5b0-4ebc-9cde-15a883289932}, !- Space Name
  Surface,                                !- Outside Boundary Condition
  {6b5edcba-9b54-4b03-a0b6-9f6b6b9b63d6}, !- Outside Boundary Condition Object
  NoSun,                                  !- Sun Exposure
  NoWind,                                 !- Wind Exposure
  ,                                       !- View Factor to Ground
  ,                                       !- Number of Vertices
  22.2807354925575, 2.8421709430404e-14, 4, !- X,Y,Z Vertex 1 {m}
  22.2807354925575, 2.8421709430404e-14, 0, !- X,Y,Z Vertex 2 {m}
  25.2807354925575, 3.00000000000003, 0,  !- X,Y,Z Vertex 3 {m}
  25.2807354925575, 3.00000000000003, 4;  !- X,Y,Z Vertex 4 {m}

OS:Surface,
  {91bea3f7-056b-48cd-97e3-42610db527f6}, !- Handle
  Surface 10,                             !- Name
  Wall,                                   !- Surface Type
  ,                                       !- Construction Name
  {ab43664b-d5b0-4ebc-9cde-15a883289932}, !- Space Name
  Surface,                                !- Outside Boundary Condition
  {847402a4-5cdf-42f5-8f23-f69d988a1b01}, !- Outside Boundary Condition Object
  NoSun,                                  !- Sun Exposure
  NoWind,                                 !- Wind Exposure
  ,                                       !- View Factor to Ground
  ,                                       !- Number of Vertices
  0, 2.8421709430404e-14, 4,              !- X,Y,Z Vertex 1 {m}
  0, 2.8421709430404e-14, 0,              !- X,Y,Z Vertex 2 {m}
  22.2807354925575, 2.8421709430404e-14, 0, !- X,Y,Z Vertex 3 {m}
  22.2807354925575, 2.8421709430404e-14, 4; !- X,Y,Z Vertex 4 {m}

OS:Surface,
  {dc7407c7-f636-44cd-976a-a1a0ff7dc508}, !- Handle
  Surface 11,                             !- Name
  Wall,                                   !- Surface Type
  ,                                       !- Construction Name
  {ab43664b-d5b0-4ebc-9cde-15a883289932}, !- Space Name
  Surface,                                !- Outside Boundary Condition
  {4894d039-3d3e-49e3-b2a8-9c5f6fc62fbd}, !- Outside Boundary Condition Object
  NoSun,                                  !- Sun Exposure
  NoWind,                                 !- Wind Exposure
  ,                                       !- View Factor to Ground
  ,                                       !- Number of Vertices
  -3, 3.00000000000003, 4,                !- X,Y,Z Vertex 1 {m}
  -3, 3.00000000000003, 0,                !- X,Y,Z Vertex 2 {m}
  0, 2.8421709430404e-14, 0,              !- X,Y,Z Vertex 3 {m}
  0, 2.8421709430404e-14, 4;              !- X,Y,Z Vertex 4 {m}

OS:Surface,
  {0634233c-9917-4850-801a-e3d57bf65e24}, !- Handle
  Surface 12,                             !- Name
  RoofCeiling,                            !- Surface Type
  ,                                       !- Construction Name
  {ab43664b-d5b0-4ebc-9cde-15a883289932}, !- Space Name
  Surface,                                !- Outside Boundary Condition
  {a40b8be5-e98e-41cd-b89e-8f50f25abd91}, !- Outside Boundary Condition Object
  NoSun,                                  !- Sun Exposure
  NoWind,                                 !- Wind Exposure
  ,                                       !- View Factor to Ground
  ,                                       !- Number of Vertices
  0, 2.8421709430404e-14, 4,              !- X,Y,Z Vertex 1 {m}
  22.2807354925575, 2.8421709430404e-14, 4, !- X,Y,Z Vertex 2 {m}
  25.2807354925575, 3.00000000000003, 4,  !- X,Y,Z Vertex 3 {m}
  -3, 3.00000000000003, 4;                !- X,Y,Z Vertex 4 {m}

OS:Space,
  {f9fbfea4-764f-43b7-967c-d3bb283289c2}, !- Handle
  Story 1 East Perimeter Space,           !- Name
  ,                                       !- Space Type Name
  ,                                       !- Default Construction Set Name
  ,                                       !- Default Schedule Set Name
  -0,                                     !- Direction of Relative North {deg}
  25.2807354925575,                       !- X Origin {m}
  3,                                      !- Y Origin {m}
  0,                                      !- Z Origin {m}
  {1052f6a9-3f67-4f24-b328-89e1adea7a86}, !- Building Story Name
  {9002e3e3-f929-4bc7-aae2-36ac884371f5}; !- Thermal Zone Name

OS:Surface,
  {ae96062f-b78f-4b9c-bf31-9ebdb2f99e29}, !- Handle
  Surface 13,                             !- Name
  Floor,                                  !- Surface Type
  ,                                       !- Construction Name
  {f9fbfea4-764f-43b7-967c-d3bb283289c2}, !- Space Name
  Ground,                                 !- Outside Boundary Condition
  ,                                       !- Outside Boundary Condition Object
  NoSun,                                  !- Sun Exposure
  NoWind,                                 !- Wind Exposure
  ,                                       !- View Factor to Ground
  ,                                       !- Number of Vertices
  3.00000000000003, 25.2807354925575, 0,  !- X,Y,Z Vertex 1 {m}
  3.00000000000003, -3, 0,                !- X,Y,Z Vertex 2 {m}
  2.8421709430404e-14, 0, 0,              !- X,Y,Z Vertex 3 {m}
  2.8421709430404e-14, 22.2807354925575, 0; !- X,Y,Z Vertex 4 {m}

OS:Surface,
  {aea7472d-7212-457e-84f5-e22fc1838359}, !- Handle
  Surface 14,                             !- Name
  Wall,                                   !- Surface Type
  ,                                       !- Construction Name
  {f9fbfea4-764f-43b7-967c-d3bb283289c2}, !- Space Name
  Outdoors,                               !- Outside Boundary Condition
  ,                                       !- Outside Boundary Condition Object
  SunExposed,                             !- Sun Exposure
  WindExposed,                            !- Wind Exposure
  ,                                       !- View Factor to Ground
  ,                                       !- Number of Vertices
  3.00000000000003, -3, 4,                !- X,Y,Z Vertex 1 {m}
  3.00000000000003, -3, 0,                !- X,Y,Z Vertex 2 {m}
  3.00000000000003, 25.2807354925575, 0,  !- X,Y,Z Vertex 3 {m}
  3.00000000000003, 25.2807354925575, 4;  !- X,Y,Z Vertex 4 {m}

OS:Surface,
  {8b683f74-0b6b-41d0-be57-33aec1759d43}, !- Handle
  Surface 15,                             !- Name
  Wall,                                   !- Surface Type
  ,                                       !- Construction Name
  {f9fbfea4-764f-43b7-967c-d3bb283289c2}, !- Space Name
  Surface,                                !- Outside Boundary Condition
  {7f6e55e4-bad1-42ea-9879-d65c0795698e}, !- Outside Boundary Condition Object
  NoSun,                                  !- Sun Exposure
  NoWind,                                 !- Wind Exposure
  ,                                       !- View Factor to Ground
  ,                                       !- Number of Vertices
  2.8421709430404e-14, 0, 4,              !- X,Y,Z Vertex 1 {m}
  2.8421709430404e-14, 0, 0,              !- X,Y,Z Vertex 2 {m}
  3.00000000000003, -3, 0,                !- X,Y,Z Vertex 3 {m}
  3.00000000000003, -3, 4;                !- X,Y,Z Vertex 4 {m}

OS:Surface,
  {3d26cae3-f967-42ae-98ab-e0ffd26cdc0f}, !- Handle
  Surface 16,                             !- Name
  Wall,                                   !- Surface Type
  ,                                       !- Construction Name
  {f9fbfea4-764f-43b7-967c-d3bb283289c2}, !- Space Name
  Surface,                                !- Outside Boundary Condition
  {b0ca3841-e0c8-4fc3-a29d-11fcdb25367f}, !- Outside Boundary Condition Object
  NoSun,                                  !- Sun Exposure
  NoWind,                                 !- Wind Exposure
  ,                                       !- View Factor to Ground
  ,                                       !- Number of Vertices
  2.8421709430404e-14, 22.2807354925575, 4, !- X,Y,Z Vertex 1 {m}
  2.8421709430404e-14, 22.2807354925575, 0, !- X,Y,Z Vertex 2 {m}
  2.8421709430404e-14, 0, 0,              !- X,Y,Z Vertex 3 {m}
  2.8421709430404e-14, 0, 4;              !- X,Y,Z Vertex 4 {m}

OS:Surface,
  {6b5edcba-9b54-4b03-a0b6-9f6b6b9b63d6}, !- Handle
  Surface 17,                             !- Name
  Wall,                                   !- Surface Type
  ,                                       !- Construction Name
  {f9fbfea4-764f-43b7-967c-d3bb283289c2}, !- Space Name
  Surface,                                !- Outside Boundary Condition
  {4a1512cb-2e85-4dbf-be68-2efddcafcddb}, !- Outside Boundary Condition Object
  NoSun,                                  !- Sun Exposure
  NoWind,                                 !- Wind Exposure
  ,                                       !- View Factor to Ground
  ,                                       !- Number of Vertices
  3.00000000000003, 25.2807354925575, 4,  !- X,Y,Z Vertex 1 {m}
  3.00000000000003, 25.2807354925575, 0,  !- X,Y,Z Vertex 2 {m}
  2.8421709430404e-14, 22.2807354925575, 0, !- X,Y,Z Vertex 3 {m}
  2.8421709430404e-14, 22.2807354925575, 4; !- X,Y,Z Vertex 4 {m}

OS:Surface,
  {e31ae164-9dbd-49f6-bc0c-de6e61b9c05a}, !- Handle
  Surface 18,                             !- Name
  RoofCeiling,                            !- Surface Type
  ,                                       !- Construction Name
  {f9fbfea4-764f-43b7-967c-d3bb283289c2}, !- Space Name
  Surface,                                !- Outside Boundary Condition
  {41918f9b-acd3-4ccd-983c-d5322b08c9e2}, !- Outside Boundary Condition Object
  NoSun,                                  !- Sun Exposure
  NoWind,                                 !- Wind Exposure
  ,                                       !- View Factor to Ground
  ,                                       !- Number of Vertices
  2.8421709430404e-14, 22.2807354925575, 4, !- X,Y,Z Vertex 1 {m}
  2.8421709430404e-14, 0, 4,              !- X,Y,Z Vertex 2 {m}
  3.00000000000003, -3, 4,                !- X,Y,Z Vertex 3 {m}
  3.00000000000003, 25.2807354925575, 4;  !- X,Y,Z Vertex 4 {m}

OS:Space,
  {ad911449-22bd-48db-9861-520a5fc46641}, !- Handle
  Story 1 South Perimeter Space,          !- Name
  ,                                       !- Space Type Name
  ,                                       !- Default Construction Set Name
  ,                                       !- Default Schedule Set Name
  -0,                                     !- Direction of Relative North {deg}
  0,                                      !- X Origin {m}
  0,                                      !- Y Origin {m}
  0,                                      !- Z Origin {m}
  {1052f6a9-3f67-4f24-b328-89e1adea7a86}, !- Building Story Name
  {14c82b70-2fc5-431b-9228-d6f471bb091c}; !- Thermal Zone Name

OS:Surface,
  {6568beb5-61f8-445a-b059-d15c2497c74a}, !- Handle
  Surface 19,                             !- Name
  Floor,                                  !- Surface Type
  ,                                       !- Construction Name
  {ad911449-22bd-48db-9861-520a5fc46641}, !- Space Name
  Ground,                                 !- Outside Boundary Condition
  ,                                       !- Outside Boundary Condition Object
  NoSun,                                  !- Sun Exposure
  NoWind,                                 !- Wind Exposure
  ,                                       !- View Factor to Ground
  ,                                       !- Number of Vertices
  28.2807354925575, 0, 0,                 !- X,Y,Z Vertex 1 {m}
  0, 0, 0,                                !- X,Y,Z Vertex 2 {m}
  3, 3, 0,                                !- X,Y,Z Vertex 3 {m}
  25.2807354925575, 3, 0;                 !- X,Y,Z Vertex 4 {m}

OS:Surface,
  {d4db3892-9ab9-4899-aba0-e47b1b2967be}, !- Handle
  Surface 20,                             !- Name
  Wall,                                   !- Surface Type
  ,                                       !- Construction Name
  {ad911449-22bd-48db-9861-520a5fc46641}, !- Space Name
  Outdoors,                               !- Outside Boundary Condition
  ,                                       !- Outside Boundary Condition Object
  SunExposed,                             !- Sun Exposure
  WindExposed,                            !- Wind Exposure
  ,                                       !- View Factor to Ground
  ,                                       !- Number of Vertices
  0, 0, 4,                                !- X,Y,Z Vertex 1 {m}
  0, 0, 0,                                !- X,Y,Z Vertex 2 {m}
  28.2807354925575, 0, 0,                 !- X,Y,Z Vertex 3 {m}
  28.2807354925575, 0, 4;                 !- X,Y,Z Vertex 4 {m}

OS:Surface,
  {91381f39-8d17-4ef0-9aac-e09d77ee3cf4}, !- Handle
  Surface 21,                             !- Name
  Wall,                                   !- Surface Type
  ,                                       !- Construction Name
  {ad911449-22bd-48db-9861-520a5fc46641}, !- Space Name
  Surface,                                !- Outside Boundary Condition
  {71b8916e-d4dd-4bf1-8bf0-3c1ba1a58d09}, !- Outside Boundary Condition Object
  NoSun,                                  !- Sun Exposure
  NoWind,                                 !- Wind Exposure
  ,                                       !- View Factor to Ground
  ,                                       !- Number of Vertices
  3, 3, 4,                                !- X,Y,Z Vertex 1 {m}
  3, 3, 0,                                !- X,Y,Z Vertex 2 {m}
  0, 0, 0,                                !- X,Y,Z Vertex 3 {m}
  0, 0, 4;                                !- X,Y,Z Vertex 4 {m}

OS:Surface,
  {a2df07ae-e546-45b0-a2e5-c46268e010db}, !- Handle
  Surface 22,                             !- Name
  Wall,                                   !- Surface Type
  ,                                       !- Construction Name
  {ad911449-22bd-48db-9861-520a5fc46641}, !- Space Name
  Surface,                                !- Outside Boundary Condition
  {fc57341e-a093-4e05-a8e1-ec3aa2f1a00b}, !- Outside Boundary Condition Object
  NoSun,                                  !- Sun Exposure
  NoWind,                                 !- Wind Exposure
  ,                                       !- View Factor to Ground
  ,                                       !- Number of Vertices
  25.2807354925575, 3, 4,                 !- X,Y,Z Vertex 1 {m}
  25.2807354925575, 3, 0,                 !- X,Y,Z Vertex 2 {m}
  3, 3, 0,                                !- X,Y,Z Vertex 3 {m}
  3, 3, 4;                                !- X,Y,Z Vertex 4 {m}

OS:Surface,
  {7f6e55e4-bad1-42ea-9879-d65c0795698e}, !- Handle
  Surface 23,                             !- Name
  Wall,                                   !- Surface Type
  ,                                       !- Construction Name
  {ad911449-22bd-48db-9861-520a5fc46641}, !- Space Name
  Surface,                                !- Outside Boundary Condition
  {8b683f74-0b6b-41d0-be57-33aec1759d43}, !- Outside Boundary Condition Object
  NoSun,                                  !- Sun Exposure
  NoWind,                                 !- Wind Exposure
  ,                                       !- View Factor to Ground
  ,                                       !- Number of Vertices
  28.2807354925575, 0, 4,                 !- X,Y,Z Vertex 1 {m}
  28.2807354925575, 0, 0,                 !- X,Y,Z Vertex 2 {m}
  25.2807354925575, 3, 0,                 !- X,Y,Z Vertex 3 {m}
  25.2807354925575, 3, 4;                 !- X,Y,Z Vertex 4 {m}

OS:Surface,
  {0d586b7f-4534-493d-9b8d-08f79c9f6601}, !- Handle
  Surface 24,                             !- Name
  RoofCeiling,                            !- Surface Type
  ,                                       !- Construction Name
  {ad911449-22bd-48db-9861-520a5fc46641}, !- Space Name
  Surface,                                !- Outside Boundary Condition
  {2afd0e56-bd01-4ac9-b052-3aaa83fd808c}, !- Outside Boundary Condition Object
  NoSun,                                  !- Sun Exposure
  NoWind,                                 !- Wind Exposure
  ,                                       !- View Factor to Ground
  ,                                       !- Number of Vertices
  25.2807354925575, 3, 4,                 !- X,Y,Z Vertex 1 {m}
  3, 3, 4,                                !- X,Y,Z Vertex 2 {m}
  0, 0, 4,                                !- X,Y,Z Vertex 3 {m}
  28.2807354925575, 0, 4;                 !- X,Y,Z Vertex 4 {m}

OS:Space,
  {cc0cbf22-5d87-4554-bd5a-1fcd211943fa}, !- Handle
  Story 1 Core Space,                     !- Name
  ,                                       !- Space Type Name
  ,                                       !- Default Construction Set Name
  ,                                       !- Default Schedule Set Name
  -0,                                     !- Direction of Relative North {deg}
  3,                                      !- X Origin {m}
  3,                                      !- Y Origin {m}
  0,                                      !- Z Origin {m}
  {1052f6a9-3f67-4f24-b328-89e1adea7a86}, !- Building Story Name
  {58261638-049a-4216-9932-832ed32e7e3c}; !- Thermal Zone Name

OS:Surface,
  {734a93a9-204c-4a82-bd4e-43b65291039e}, !- Handle
  Surface 25,                             !- Name
  Floor,                                  !- Surface Type
  ,                                       !- Construction Name
  {cc0cbf22-5d87-4554-bd5a-1fcd211943fa}, !- Space Name
  Ground,                                 !- Outside Boundary Condition
  ,                                       !- Outside Boundary Condition Object
  NoSun,                                  !- Sun Exposure
  NoWind,                                 !- Wind Exposure
  ,                                       !- View Factor to Ground
  ,                                       !- Number of Vertices
  0, 0, 0,                                !- X,Y,Z Vertex 1 {m}
  0, 22.2807354925575, 0,                 !- X,Y,Z Vertex 2 {m}
  22.2807354925575, 22.2807354925575, 0,  !- X,Y,Z Vertex 3 {m}
  22.2807354925575, 0, 0;                 !- X,Y,Z Vertex 4 {m}

OS:Surface,
  {cc604648-a586-4b83-af3a-19c57ec7e7d5}, !- Handle
  Surface 26,                             !- Name
  Wall,                                   !- Surface Type
  ,                                       !- Construction Name
  {cc0cbf22-5d87-4554-bd5a-1fcd211943fa}, !- Space Name
  Surface,                                !- Outside Boundary Condition
  {da6039d9-3c63-49e2-9f5c-862bbdb5f780}, !- Outside Boundary Condition Object
  NoSun,                                  !- Sun Exposure
  NoWind,                                 !- Wind Exposure
  ,                                       !- View Factor to Ground
  ,                                       !- Number of Vertices
  0, 22.2807354925575, 4,                 !- X,Y,Z Vertex 1 {m}
  0, 22.2807354925575, 0,                 !- X,Y,Z Vertex 2 {m}
  0, 0, 0,                                !- X,Y,Z Vertex 3 {m}
  0, 0, 4;                                !- X,Y,Z Vertex 4 {m}

OS:Surface,
  {847402a4-5cdf-42f5-8f23-f69d988a1b01}, !- Handle
  Surface 27,                             !- Name
  Wall,                                   !- Surface Type
  ,                                       !- Construction Name
  {cc0cbf22-5d87-4554-bd5a-1fcd211943fa}, !- Space Name
  Surface,                                !- Outside Boundary Condition
  {91bea3f7-056b-48cd-97e3-42610db527f6}, !- Outside Boundary Condition Object
  NoSun,                                  !- Sun Exposure
  NoWind,                                 !- Wind Exposure
  ,                                       !- View Factor to Ground
  ,                                       !- Number of Vertices
  22.2807354925575, 22.2807354925575, 4,  !- X,Y,Z Vertex 1 {m}
  22.2807354925575, 22.2807354925575, 0,  !- X,Y,Z Vertex 2 {m}
  0, 22.2807354925575, 0,                 !- X,Y,Z Vertex 3 {m}
  0, 22.2807354925575, 4;                 !- X,Y,Z Vertex 4 {m}

OS:Surface,
  {b0ca3841-e0c8-4fc3-a29d-11fcdb25367f}, !- Handle
  Surface 28,                             !- Name
  Wall,                                   !- Surface Type
  ,                                       !- Construction Name