
OS:Version,
  {114d378b-80ae-4789-ab07-59660fa73dc7}, !- Handle
  0.10.0;                                 !- Version Identifier

OS:BuildingStory,
  {79da421f-d2f8-4c76-9d89-db5c9da024f8}, !- Handle
  Story 1,                                !- Name
  0,                                      !- Nominal Z Coordinate {m}
  4,                                      !- Nominal Floor to Floor Height {m}
  ,                                       !- Default Construction Set Name
  ,                                       !- Default Schedule Set Name
  ;                                       !- Group Rendering Name

OS:Space,
  {ae0d6604-9802-47e0-97b7-b513076a6d07}, !- Handle
  Story 1 West Perimeter Space,           !- Name
  ,                                       !- Space Type Name
  ,                                       !- Default Construction Set Name
  ,                                       !- Default Schedule Set Name
  -0,                                     !- Direction of Relative North {deg}
  0,                                      !- X Origin {m}
  0,                                      !- Y Origin {m}
  0,                                      !- Z Origin {m}
  {79da421f-d2f8-4c76-9d89-db5c9da024f8}, !- Building Story Name
  {bebc6253-60eb-41f9-abac-27416b29af03}; !- Thermal Zone Name

OS:Surface,
  {6945d20c-446a-41b1-80e3-f4d8b40391e6}, !- Handle
  Surface 1,                              !- Name
  Floor,                                  !- Surface Type
  ,                                       !- Construction Name
  {ae0d6604-9802-47e0-97b7-b513076a6d07}, !- Space Name
  Ground,                                 !- Outside Boundary Condition
  ,                                       !- Outside Boundary Condition Object
  NoSun,                                  !- Sun Exposure
  NoWind,                                 !- Wind Exposure
  ,                                       !- View Factor to Ground
  ,                                       !- Number of Vertices
  0, 0, 0,                                !- X,Y,Z Vertex 1 {m}
  0, 27.3815631401861, 0,                 !- X,Y,Z Vertex 2 {m}
  3, 24.3815631401861, 0,                 !- X,Y,Z Vertex 3 {m}
  3, 3, 0;                                !- X,Y,Z Vertex 4 {m}

OS:Surface,
  {8f008822-d7df-4df6-a457-1d9e7a4e0b67}, !- Handle
  Surface 2,                              !- Name
  Wall,                                   !- Surface Type
  ,                                       !- Construction Name
  {ae0d6604-9802-47e0-97b7-b513076a6d07}, !- Space Name
  Outdoors,                               !- Outside Boundary Condition
  ,                                       !- Outside Boundary Condition Object
  SunExposed,                             !- Sun Exposure
  WindExposed,                            !- Wind Exposure
  ,                                       !- View Factor to Ground
  ,                                       !- Number of Vertices
  0, 27.3815631401861, 4,                 !- X,Y,Z Vertex 1 {m}
  0, 27.3815631401861, 0,                 !- X,Y,Z Vertex 2 {m}
  0, 0, 0,                                !- X,Y,Z Vertex 3 {m}
  0, 0, 4;                                !- X,Y,Z Vertex 4 {m}

OS:Surface,
  {28f33d3d-7ceb-4f55-aa56-6ce77f50ab9f}, !- Handle
  Surface 3,                              !- Name
  Wall,                                   !- Surface Type
  ,                                       !- Construction Name
  {ae0d6604-9802-47e0-97b7-b513076a6d07}, !- Space Name
  Surface,                                !- Outside Boundary Condition
  {275ea7f0-2ddd-4024-b180-927c5ec2a18d}, !- Outside Boundary Condition Object
  NoSun,                                  !- Sun Exposure
  NoWind,                                 !- Wind Exposure
  ,                                       !- View Factor to Ground
  ,                                       !- Number of Vertices
  3, 24.3815631401861, 4,                 !- X,Y,Z Vertex 1 {m}
  3, 24.3815631401861, 0,                 !- X,Y,Z Vertex 2 {m}
  0, 27.3815631401861, 0,                 !- X,Y,Z Vertex 3 {m}
  0, 27.3815631401861, 4;                 !- X,Y,Z Vertex 4 {m}

OS:Surface,
  {318015ee-fd72-4ac8-b822-343de99e37c2}, !- Handle
  Surface 4,                              !- Name
  Wall,                                   !- Surface Type
  ,                                       !- Construction Name
  {ae0d6604-9802-47e0-97b7-b513076a6d07}, !- Space Name
  Surface,                                !- Outside Boundary Condition
  {9075141c-c6ce-4aae-96f8-e6618105a701}, !- Outside Boundary Condition Object
  NoSun,                                  !- Sun Exposure
  NoWind,                                 !- Wind Exposure
  ,                                       !- View Factor to Ground
  ,                                       !- Number of Vertices
  3, 3, 4,                                !- X,Y,Z Vertex 1 {m}
  3, 3, 0,                                !- X,Y,Z Vertex 2 {m}
  3, 24.3815631401861, 0,                 !- X,Y,Z Vertex 3 {m}
  3, 24.3815631401861, 4;                 !- X,Y,Z Vertex 4 {m}

OS:Surface,
  {1d97817b-50b3-4641-a75c-d4b1f691df00}, !- Handle
  Surface 5,                              !- Name
  Wall,                                   !- Surface Type
  ,                                       !- Construction Name
  {ae0d6604-9802-47e0-97b7-b513076a6d07}, !- Space Name
  Surface,                                !- Outside Boundary Condition
  {1d5a64b7-f7f9-46dd-aeba-c3dd5f17504e}, !- Outside Boundary Condition Object
  NoSun,                                  !- Sun Exposure
  NoWind,                                 !- Wind Exposure
  ,                                       !- View Factor to Ground
  ,                                       !- Number of Vertices
  0, 0, 4,                                !- X,Y,Z Vertex 1 {m}
  0, 0, 0,                                !- X,Y,Z Vertex 2 {m}
  3, 3, 0,                                !- X,Y,Z Vertex 3 {m}
  3, 3, 4;                                !- X,Y,Z Vertex 4 {m}

OS:Surface,
  {72f7282f-bbf8-42a4-a85e-53ca3f5d0770}, !- Handle
  Surface 6,                              !- Name
  RoofCeiling,                            !- Surface Type
  ,                                       !- Construction Name
  {ae0d6604-9802-47e0-97b7-b513076a6d07}, !- Space Name
  Surface,                                !- Outside Boundary Condition
  {9826427f-f88b-4644-9d12-d2f95fe0f88d}, !- Outside Boundary Condition Object
  NoSun,                                  !- Sun Exposure
  NoWind,                                 !- Wind Exposure
  ,                                       !- View Factor to Ground
  ,                                       !- Number of Vertices
  3, 3, 4,                                !- X,Y,Z Vertex 1 {m}
  3, 24.3815631401861, 4,                 !- X,Y,Z Vertex 2 {m}
  0, 27.3815631401861, 4,                 !- X,Y,Z Vertex 3 {m}
  0, 0, 4;                                !- X,Y,Z Vertex 4 {m}

OS:Space,
  {ddf989df-57f9-421b-b7c5-3801dc288b83}, !- Handle
  Story 1 North Perimeter Space,          !- Name
  ,                                       !- Space Type Name
  ,                                       !- Default Construction Set Name
  ,                                       !- Default Schedule Set Name
  -0,                                     !- Direction of Relative North {deg}
  3,                                      !- X Origin {m}
  24.3815631401861,                       !- Y Origin {m}
  0,                                      !- Z Origin {m}
  {79da421f-d2f8-4c76-9d89-db5c9da024f8}, !- Building Story Name
  {068da774-07b4-40ac-8e5d-23fd8d921f7b}; !- Thermal Zone Name

OS:Surface,
  {08ae6f34-4532-4331-9c63-1a5ebc9733c2}, !- Handle
  Surface 7,                              !- Name
  Floor,                                  !- Surface Type
  ,                                       !- Construction Name
  {ddf989df-57f9-421b-b7c5-3801dc288b83}, !- Space Name
  Ground,                                 !- Outside Boundary Condition
  ,                                       !- Outside Boundary Condition Object
  NoSun,                                  !- Sun Exposure
  NoWind,                                 !- Wind Exposure
  ,                                       !- View Factor to Ground
  ,                                       !- Number of Vertices
  -3, 2.99999999999996, 0,                !- X,Y,Z Vertex 1 {m}
  24.3815631401861, 2.99999999999996, 0,  !- X,Y,Z Vertex 2 {m}
  21.3815631401861, -3.5527136788005e-14, 0, !- X,Y,Z Vertex 3 {m}
  0, -3.5527136788005e-14, 0;             !- X,Y,Z Vertex 4 {m}

OS:Surface,
  {30e185d3-9036-4c85-b82b-daf643aebf0f}, !- Handle
  Surface 8,                              !- Name
  Wall,                                   !- Surface Type
  ,                                       !- Construction Name
  {ddf989df-57f9-421b-b7c5-3801dc288b83}, !- Space Name
  Outdoors,                               !- Outside Boundary Condition
  ,                                       !- Outside Boundary Condition Object
  SunExposed,                             !- Sun Exposure
  WindExposed,                            !- Wind Exposure
  ,                                       !- View Factor to Ground
  ,                                       !- Number of Vertices
  24.3815631401861, 2.99999999999996, 4,  !- X,Y,Z Vertex 1 {m}
  24.3815631401861, 2.99999999999996, 0,  !- X,Y,Z Vertex 2 {m}
  -3, 2.99999999999996, 0,                !- X,Y,Z Vertex 3 {m}
  -3, 2.99999999999996, 4;                !- X,Y,Z Vertex 4 {m}

OS:Surface,
  {97145f5d-580c-43e6-a37f-3d72d7328c63}, !- Handle
  Surface 9,                              !- Name
  Wall,                                   !- Surface Type
  ,                                       !- Construction Name
  {ddf989df-57f9-421b-b7c5-3801dc288b83}, !- Space Name
  Surface,                                !- Outside Boundary Condition
  {cfd69b44-3773-40d0-a635-28e463f04922}, !- Outside Boundary Condition Object
  NoSun,                                  !- Sun Exposure
  NoWind,                                 !- Wind Exposure
  ,                                       !- View Factor to Ground
  ,                                       !- Number of Vertices
  21.3815631401861, -3.5527136788005e-14, 4, !- X,Y,Z Vertex 1 {m}
  21.3815631401861, -3.5527136788005e-14, 0, !- X,Y,Z Vertex 2 {m}
  24.3815631401861, 2.99999999999996, 0,  !- X,Y,Z Vertex 3 {m}
  24.3815631401861, 2.99999999999996, 4;  !- X,Y,Z Vertex 4 {m}

OS:Surface,
  {16ac1cd6-bf4b-4204-b51f-85421d6297ce}, !- Handle
  Surface 10,                             !- Name
  Wall,                                   !- Surface Type
  ,                                       !- Construction Name
  {ddf989df-57f9-421b-b7c5-3801dc288b83}, !- Space Name
  Surface,                                !- Outside Boundary Condition
  {775964a4-4292-4889-9223-11e837bdae0c}, !- Outside Boundary Condition Object
  NoSun,                                  !- Sun Exposure
  NoWind,                                 !- Wind Exposure
  ,                                       !- View Factor to Ground
  ,                                       !- Number of Vertices
  0, -3.5527136788005e-14, 4,             !- X,Y,Z Vertex 1 {m}
  0, -3.5527136788005e-14, 0,             !- X,Y,Z Vertex 2 {m}
  21.3815631401861, -3.5527136788005e-14, 0, !- X,Y,Z Vertex 3 {m}
  21.3815631401861, -3.5527136788005e-14, 4; !- X,Y,Z Vertex 4 {m}

OS:Surface,
  {275ea7f0-2ddd-4024-b180-927c5ec2a18d}, !- Handle
  Surface 11,                             !- Name
  Wall,                                   !- Surface Type
  ,                                       !- Construction Name
  {ddf989df-57f9-421b-b7c5-3801dc288b83}, !- Space Name
  Surface,                                !- Outside Boundary Condition
  {28f33d3d-7ceb-4f55-aa56-6ce77f50ab9f}, !- Outside Boundary Condition Object
  NoSun,                                  !- Sun Exposure
  NoWind,                                 !- Wind Exposure
  ,                                       !- View Factor to Ground
  ,                                       !- Number of Vertices
  -3, 2.99999999999996, 4,                !- X,Y,Z Vertex 1 {m}
  -3, 2.99999999999996, 0,                !- X,Y,Z Vertex 2 {m}
  0, -3.5527136788005e-14, 0,             !- X,Y,Z Vertex 3 {m}
  0, -3.5527136788005e-14, 4;             !- X,Y,Z Vertex 4 {m}

OS:Surface,
  {918805f4-e88b-4efd-91be-79f1d3958f0b}, !- Handle
  Surface 12,                             !- Name
  RoofCeiling,                            !- Surface Type
  ,                                       !- Construction Name
  {ddf989df-57f9-421b-b7c5-3801dc288b83}, !- Space Name
  Surface,                                !- Outside Boundary Condition
  {bc0a6ae5-21ae-4699-abea-079967be1ce0}, !- Outside Boundary Condition Object
  NoSun,                                  !- Sun Exposure
  NoWind,                                 !- Wind Exposure
  ,                                       !- View Factor to Ground
  ,                                       !- Number of Vertices
  0, -3.5527136788005e-14, 4,             !- X,Y,Z Vertex 1 {m}
  21.3815631401861, -3.5527136788005e-14, 4, !- X,Y,Z Vertex 2 {m}
  24.3815631401861, 2.99999999999996, 4,  !- X,Y,Z Vertex 3 {m}
  -3, 2.99999999999996, 4;                !- X,Y,Z Vertex 4 {m}

OS:Space,
  {185ec716-b114-4265-9cf0-06e60d36138e}, !- Handle
  Story 1 East Perimeter Space,           !- Name
  ,                                       !- Space Type Name
  ,                                       !- Default Construction Set Name
  ,                                       !- Default Schedule Set Name
  -0,                                     !- Direction of Relative North {deg}
  24.3815631401861,                       !- X Origin {m}
  3,                                      !- Y Origin {m}
  0,                                      !- Z Origin {m}
  {79da421f-d2f8-4c76-9d89-db5c9da024f8}, !- Building Story Name
  {f4b5bf03-d0e0-430e-9623-1ff09f934abf}; !- Thermal Zone Name

OS:Surface,
  {ef66a6bf-55a7-4ce1-bdb5-52fad90c2223}, !- Handle
  Surface 13,                             !- Name
  Floor,                                  !- Surface Type
  ,                                       !- Construction Name
  {185ec716-b114-4265-9cf0-06e60d36138e}, !- Space Name
  Ground,                                 !- Outside Boundary Condition
  ,                                       !- Outside Boundary Condition Object
  NoSun,                                  !- Sun Exposure
  NoWind,                                 !- Wind Exposure
  ,                                       !- View Factor to Ground
  ,                                       !- Number of Vertices
  2.99999999999996, 24.3815631401861, 0,  !- X,Y,Z Vertex 1 {m}
  2.99999999999996, -3, 0,                !- X,Y,Z Vertex 2 {m}
  -3.5527136788005e-14, 0, 0,             !- X,Y,Z Vertex 3 {m}
  -3.5527136788005e-14, 21.3815631401861, 0; !- X,Y,Z Vertex 4 {m}

OS:Surface,
  {a5c0167a-8798-4983-8c54-e5b3159b4d26}, !- Handle
  Surface 14,                             !- Name
  Wall,                                   !- Surface Type
  ,                                       !- Construction Name
  {185ec716-b114-4265-9cf0-06e60d36138e}, !- Space Name
  Outdoors,                               !- Outside Boundary Condition
  ,                                       !- Outside Boundary Condition Object
  SunExposed,                             !- Sun Exposure
  WindExposed,                            !- Wind Exposure
  ,                                       !- View Factor to Ground
  ,                                       !- Number of Vertices
  2.99999999999996, -3, 4,                !- X,Y,Z Vertex 1 {m}
  2.99999999999996, -3, 0,                !- X,Y,Z Vertex 2 {m}
  2.99999999999996, 24.3815631401861, 0,  !- X,Y,Z Vertex 3 {m}
  2.99999999999996, 24.3815631401861, 4;  !- X,Y,Z Vertex 4 {m}

OS:Surface,
  {8615da47-e3c7-4dd0-b65c-1370275863db}, !- Handle
  Surface 15,                             !- Name
  Wall,                                   !- Surface Type
  ,                                       !- Construction Name
  {185ec716-b114-4265-9cf0-06e60d36138e}, !- Space Name
  Surface,                                !- Outside Boundary Condition
  {5f1b462f-1bba-438f-b42e-0b18fbfc1a8a}, !- Outside Boundary Condition Object
  NoSun,                                  !- Sun Exposure
  NoWind,                                 !- Wind Exposure
  ,                                       !- View Factor to Ground
  ,                                       !- Number of Vertices
  -3.5527136788005e-14, 0, 4,             !- X,Y,Z Vertex 1 {m}
  -3.5527136788005e-14, 0, 0,             !- X,Y,Z Vertex 2 {m}
  2.99999999999996, -3, 0,                !- X,Y,Z Vertex 3 {m}
  2.99999999999996, -3, 4;                !- X,Y,Z Vertex 4 {m}

OS:Surface,
  {951f994b-235c-4e4f-a18f-ce853958f834}, !- Handle
  Surface 16,                             !- Name
  Wall,                                   !- Surface Type
  ,                                       !- Construction Name
  {185ec716-b114-4265-9cf0-06e60d36138e}, !- Space Name
  Surface,                                !- Outside Boundary Condition
  {385670ca-f204-4a93-9dbc-5647ef149d2f}, !- Outside Boundary Condition Object
  NoSun,                                  !- Sun Exposure
  NoWind,                                 !- Wind Exposure
  ,                                       !- View Factor to Ground
  ,                                       !- Number of Vertices
  -3.5527136788005e-14, 21.3815631401861, 4, !- X,Y,Z Vertex 1 {m}
  -3.5527136788005e-14, 21.3815631401861, 0, !- X,Y,Z Vertex 2 {m}
  -3.5527136788005e-14, 0, 0,             !- X,Y,Z Vertex 3 {m}
  -3.5527136788005e-14, 0, 4;             !- X,Y,Z Vertex 4 {m}

OS:Surface,
  {cfd69b44-3773-40d0-a635-28e463f04922}, !- Handle
  Surface 17,                             !- Name
  Wall,                                   !- Surface Type
  ,                                       !- Construction Name
  {185ec716-b114-4265-9cf0-06e60d36138e}, !- Space Name
  Surface,                                !- Outside Boundary Condition
  {97145f5d-580c-43e6-a37f-3d72d7328c63}, !- Outside Boundary Condition Object
  NoSun,                                  !- Sun Exposure
  NoWind,                                 !- Wind Exposure
  ,                                       !- View Factor to Ground
  ,                                       !- Number of Vertices
  2.99999999999996, 24.3815631401861, 4,  !- X,Y,Z Vertex 1 {m}
  2.99999999999996, 24.3815631401861, 0,  !- X,Y,Z Vertex 2 {m}
  -3.5527136788005e-14, 21.3815631401861, 0, !- X,Y,Z Vertex 3 {m}
  -3.5527136788005e-14, 21.3815631401861, 4; !- X,Y,Z Vertex 4 {m}

OS:Surface,
  {542bfcd5-2f65-4cc4-a9f1-8d37d97bdd94}, !- Handle
  Surface 18,                             !- Name
  RoofCeiling,                            !- Surface Type
  ,                                       !- Construction Name
  {185ec716-b114-4265-9cf0-06e60d36138e}, !- Space Name
  Surface,                                !- Outside Boundary Condition
  {d33ae3c3-8d77-4970-96aa-9dec9a746621}, !- Outside Boundary Condition Object
  NoSun,                                  !- Sun Exposure
  NoWind,                                 !- Wind Exposure
  ,                                       !- View Factor to Ground
  ,                                       !- Number of Vertices
  -3.5527136788005e-14, 21.3815631401861, 4, !- X,Y,Z Vertex 1 {m}
  -3.5527136788005e-14, 0, 4,             !- X,Y,Z Vertex 2 {m}
  2.99999999999996, -3, 4,                !- X,Y,Z Vertex 3 {m}
  2.99999999999996, 24.3815631401861, 4;  !- X,Y,Z Vertex 4 {m}

OS:Space,
  {03556150-7585-42dc-af30-5a9503a5f5ed}, !- Handle
  Story 1 South Perimeter Space,          !- Name
  ,                                       !- Space Type Name
  ,                                       !- Default Construction Set Name
  ,                                       !- Default Schedule Set Name
  -0,                                     !- Direction of Relative North {deg}
  0,                                      !- X Origin {m}
  0,                                      !- Y Origin {m}
  0,                                      !- Z Origin {m}
  {79da421f-d2f8-4c76-9d89-db5c9da024f8}, !- Building Story Name
  {dec3147a-6f23-4381-aba1-5659611c9e92}; !- Thermal Zone Name

OS:Surface,
  {34647e94-5e59-41bb-abb0-097b9e841a7e}, !- Handle
  Surface 19,                             !- Name
  Floor,                                  !- Surface Type
  ,                                       !- Construction Name
  {03556150-7585-42dc-af30-5a9503a5f5ed}, !- Space Name
  Ground,                                 !- Outside Boundary Condition
  ,                                       !- Outside Boundary Condition Object
  NoSun,                                  !- Sun Exposure
  NoWind,                                 !- Wind Exposure
  ,                                       !- View Factor to Ground
  ,                                       !- Number of Vertices
  27.3815631401861, 0, 0,                 !- X,Y,Z Vertex 1 {m}
  0, 0, 0,                                !- X,Y,Z Vertex 2 {m}
  3, 3, 0,                                !- X,Y,Z Vertex 3 {m}
  24.3815631401861, 3, 0;                 !- X,Y,Z Vertex 4 {m}

OS:Surface,
  {4a270618-2b62-4318-87dd-779685bb8225}, !- Handle
  Surface 20,                             !- Name
  Wall,                                   !- Surface Type
  ,                                       !- Construction Name
  {03556150-7585-42dc-af30-5a9503a5f5ed}, !- Space Name
  Outdoors,                               !- Outside Boundary Condition
  ,                                       !- Outside Boundary Condition Object
  SunExposed,                             !- Sun Exposure
  WindExposed,                            !- Wind Exposure
  ,                                       !- View Factor to Ground
  ,                                       !- Number of Vertices
  0, 0, 4,                                !- X,Y,Z Vertex 1 {m}
  0, 0, 0,                                !- X,Y,Z Vertex 2 {m}
  27.3815631401861, 0, 0,                 !- X,Y,Z Vertex 3 {m}
  27.3815631401861, 0, 4;                 !- X,Y,Z Vertex 4 {m}

OS:Surface,
  {1d5a64b7-f7f9-46dd-aeba-c3dd5f17504e}, !- Handle
  Surface 21,                             !- Name
  Wall,                                   !- Surface Type
  ,                                       !- Construction Name
  {03556150-7585-42dc-af30-5a9503a5f5ed}, !- Space Name
  Surface,                                !- Outside Boundary Condition
  {1d97817b-50b3-4641-a75c-d4b1f691df00}, !- Outside Boundary Condition Object
  NoSun,                                  !- Sun Exposure
  NoWind,                                 !- Wind Exposure
  ,                                       !- View Factor to Ground
  ,                                       !- Number of Vertices
  3, 3, 4,                                !- X,Y,Z Vertex 1 {m}
  3, 3, 0,                                !- X,Y,Z Vertex 2 {m}
  0, 0, 0,                                !- X,Y,Z Vertex 3 {m}
  0, 0, 4;                                !- X,Y,Z Vertex 4 {m}

OS:Surface,
  {d6604ccc-7fdd-4183-840b-ea5c0fde8849}, !- Handle
  Surface 22,                             !- Name
  Wall,                                   !- Surface Type
  ,                                       !- Construction Name
  {03556150-7585-42dc-af30-5a9503a5f5ed}, !- Space Name
  Surface,                                !- Outside Boundary Condition
  {cefd514b-f982-4565-afa9-a9b58f5e2805}, !- Outside Boundary Condition Object
  NoSun,                                  !- Sun Exposure
  NoWind,                                 !- Wind Exposure
  ,                                       !- View Factor to Ground
  ,                                       !- Number of Vertices
  24.3815631401861, 3, 4,                 !- X,Y,Z Vertex 1 {m}
  24.3815631401861, 3, 0,                 !- X,Y,Z Vertex 2 {m}
  3, 3, 0,                                !- X,Y,Z Vertex 3 {m}
  3, 3, 4;                                !- X,Y,Z Vertex 4 {m}

OS:Surface,
  {5f1b462f-1bba-438f-b42e-0b18fbfc1a8a}, !- Handle
  Surface 23,                             !- Name
  Wall,                                   !- Surface Type
  ,                                       !- Construction Name
  {03556150-7585-42dc-af30-5a9503a5f5ed}, !- Space Name
  Surface,                                !- Outside Boundary Condition
  {8615da47-e3c7-4dd0-b65c-1370275863db}, !- Outside Boundary Condition Object
  NoSun,                                  !- Sun Exposure
  NoWind,                                 !- Wind Exposure
  ,                                       !- View Factor to Ground
  ,                                       !- Number of Vertices
  27.3815631401861, 0, 4,                 !- X,Y,Z Vertex 1 {m}
  27.3815631401861, 0, 0,                 !- X,Y,Z Vertex 2 {m}
  24.3815631401861, 3, 0,                 !- X,Y,Z Vertex 3 {m}
  24.3815631401861, 3, 4;                 !- X,Y,Z Vertex 4 {m}

OS:Surface,
  {b64cce42-c75b-4fbd-a2b4-73f0477b8284}, !- Handle
  Surface 24,                             !- Name
  RoofCeiling,                            !- Surface Type
  ,                                       !- Construction Name
  {03556150-7585-42dc-af30-5a9503a5f5ed}, !- Space Name
  Surface,                                !- Outside Boundary Condition
  {0ac947d1-4735-4cae-8796-98661ee9cd48}, !- Outside Boundary Condition Object
  NoSun,                                  !- Sun Exposure
  NoWind,                                 !- Wind Exposure
  ,                                       !- View Factor to Ground
  ,                                       !- Number of Vertices
  24.3815631401861, 3, 4,                 !- X,Y,Z Vertex 1 {m}
  3, 3, 4,                                !- X,Y,Z Vertex 2 {m}
  0, 0, 4,                                !- X,Y,Z Vertex 3 {m}
  27.3815631401861, 0, 4;                 !- X,Y,Z Vertex 4 {m}

OS:Space,
  {abb8fa4d-a4f9-4cf4-afa5-def2c92667db}, !- Handle
  Story 1 Core Space,                     !- Name
  ,                                       !- Space Type Name
  ,                                       !- Default Construction Set Name
  ,                                       !- Default Schedule Set Name
  -0,                                     !- Direction of Relative North {deg}
  3,                                      !- X Origin {m}
  3,                                      !- Y Origin {m}
  0,                                      !- Z Origin {m}
  {79da421f-d2f8-4c76-9d89-db5c9da024f8}, !- Building Story Name
  {d11e708e-874b-481d-a6d0-6698f16e879a}; !- Thermal Zone Name

OS:Surface,
  {8a493279-1b48-4594-82d6-caed0a9d0b25}, !- Handle
  Surface 25,                             !- Name
  Floor,                                  !- Surface Type
  ,                                       !- Construction Name
  {abb8fa4d-a4f9-4cf4-afa5-def2c92667db}, !- Space Name
  Ground,                                 !- Outside Boundary Condition
  ,                                       !- Outside Boundary Condition Object
  NoSun,                                  !- Sun Exposure
  NoWind,                                 !- Wind Exposure
  ,                                       !- View Factor to Ground
  ,                                       !- Number of Vertices
  0, 0, 0,                                !- X,Y,Z Vertex 1 {m}
  0, 21.3815631401861, 0,                 !- X,Y,Z Vertex 2 {m}
  21.3815631401861, 21.3815631401861, 0,  !- X,Y,Z Vertex 3 {m}
  21.3815631401861, 0, 0;                 !- X,Y,Z Vertex 4 {m}

OS:Surface,
  {9075141c-c6ce-4aae-96f8-e6618105a701}, !- Handle
  Surface 26,                             !- Name
  Wall,                                   !- Surface Type
  ,                                       !- Construction Name
  {abb8fa4d-a4f9-4cf4-afa5-def2c92667db}, !- Space Name
  Surface,                                !- Outside Boundary Condition
  {318015ee-fd72-4ac8-b822-343de99e37c2}, !- Outside Boundary Condition Object
  NoSun,                                  !- Sun Exposure
  NoWind,                                 !- Wind Exposure
  ,                                       !- View Factor to Ground
  ,                                       !- Number of Vertices
  0, 21.3815631401861, 4,                 !- X,Y,Z Vertex 1 {m}
  0, 21.3815631401861, 0,                 !- X,Y,Z Vertex 2 {m}
  0, 0, 0,                                !- X,Y,Z Vertex 3 {m}
  0, 0, 4;                                !- X,Y,Z Vertex 4 {m}

OS:Surface,
  {775964a4-4292-4889-9223-11e837bdae0c}, !- Handle
  Surface 27,                             !- Name
  Wall,                                   !- Surface Type
  ,                                       !- Construction Name
  {abb8fa4d-a4f9-4cf4-afa5-def2c92667db}, !- Space Name
  Surface,                                !- Outside Boundary Condition
  {16ac1cd6-bf4b-4204-b51f-85421d6297ce}, !- Outside Boundary Condition Object
  NoSun,                                  !- Sun Exposure
  NoWind,                                 !- Wind Exposure
  ,                                       !- View Factor to Ground
  ,                                       !- Number of Vertices
  21.3815631401861, 21.3815631401861, 4,  !- X,Y,Z Vertex 1 {m}
  21.3815631401861, 21.3815631401861, 0,  !- X,Y,Z Vertex 2 {m}
  0, 21.3815631401861, 0,                 !- X,Y,Z Vertex 3 {m}
  0, 21.3815631401861, 4;                 !- X,Y,Z Vertex 4 {m}

OS:Surface,
  {385670ca-f204-4a93-9dbc-5647ef149d2f}, !- Handle
  Surface 28,                             !- Name
  Wall,                                   !- Surface Type
  ,                                       !- Construction Name