
OS:Version,
  {c8f47f4e-20fe-4a92-99e5-9592855ad3b5}, !- Handle
  0.10.0;                                 !- Version Identifier

OS:BuildingStory,
  {92280353-9846-4460-8cc4-e0a6d6ee6041}, !- Handle
  Story 1,                                !- Name
  0,                                      !- Nominal Z Coordinate {m}
  4,                                      !- Nominal Floor to Floor Height {m}
  ,                                       !- Default Construction Set Name
  ,                                       !- Default Schedule Set Name
  ;                                       !- Group Rendering Name

OS:Space,
  {48c4842c-c8ab-48ba-a2ad-de65152f40a7}, !- Handle
  Story 1 West Perimeter Space,           !- Name
  ,                                       !- Space Type Name
  ,                                       !- Default Construction Set Name
  ,                                       !- Default Schedule Set Name
  -0,                                     !- Direction of Relative North {deg}
  0,                                      !- X Origin {m}
  0,                                      !- Y Origin {m}
  0,                                      !- Z Origin {m}
  {92280353-9846-4460-8cc4-e0a6d6ee6041}, !- Building Story Name
  {6f1956bb-029c-4028-8c04-0b1d37cbfe98}; !- Thermal Zone Name

OS:Surface,
  {a8ce50bd-77f8-4e20-b20a-29fc33cfa9c1}, !- Handle
  Surface 1,                              !- Name
  Floor,                                  !- Surface Type
  ,                                       !- Construction Name
  {48c4842c-c8ab-48ba-a2ad-de65152f40a7}, !- Space Name
  Ground,                                 !- Outside Boundary Condition
  ,                                       !- Outside Boundary Condition Object
  NoSun,                                  !- Sun Exposure
  NoWind,                                 !- Wind Exposure
  ,                                       !- View Factor to Ground
  ,                                       !- Number of Vertices
  0, 0, 0,                                !- X,Y,Z Vertex 1 {m}
  0, 19.3649167310371, 0,                 !- X,Y,Z Vertex 2 {m}
  3, 16.3649167310371, 0,                 !- X,Y,Z Vertex 3 {m}
  3, 3, 0;                                !- X,Y,Z Vertex 4 {m}

OS:Surface,
  {2d8af919-92e7-455e-94ba-c57802e2bb84}, !- Handle
  Surface 2,                              !- Name
  Wall,                                   !- Surface Type
  ,                                       !- Construction Name
  {48c4842c-c8ab-48ba-a2ad-de65152f40a7}, !- Space Name
  Outdoors,                               !- Outside Boundary Condition
  ,                                       !- Outside Boundary Condition Object
  SunExposed,                             !- Sun Exposure
  WindExposed,                            !- Wind Exposure
  ,                                       !- View Factor to Ground
  ,                                       !- Number of Vertices
  0, 19.3649167310371, 4,                 !- X,Y,Z Vertex 1 {m}
  0, 19.3649167310371, 0,                 !- X,Y,Z Vertex 2 {m}
  0, 0, 0,                                !- X,Y,Z Vertex 3 {m}
  0, 0, 4;                                !- X,Y,Z Vertex 4 {m}

OS:Surface,
  {cc2fbeba-e6b7-414e-884e-2ba28d55426d}, !- Handle
  Surface 3,                              !- Name
  Wall,                                   !- Surface Type
  ,                                       !- Construction Name
  {48c4842c-c8ab-48ba-a2ad-de65152f40a7}, !- Space Name
  Surface,                                !- Outside Boundary Condition
  {7dce8da1-4526-4432-9bb0-b7142cb0c7cc}, !- Outside Boundary Condition Object
  NoSun,                                  !- Sun Exposure
  NoWind,                                 !- Wind Exposure
  ,                                       !- View Factor to Ground
  ,                                       !- Number of Vertices
  3, 16.3649167310371, 4,                 !- X,Y,Z Vertex 1 {m}
  3, 16.3649167310371, 0,                 !- X,Y,Z Vertex 2 {m}
  0, 19.3649167310371, 0,                 !- X,Y,Z Vertex 3 {m}
  0, 19.3649167310371, 4;                 !- X,Y,Z Vertex 4 {m}

OS:Surface,
  {ddf913cb-f6e9-478d-90d0-81188e840a62}, !- Handle
  Surface 4,                              !- Name
  Wall,                                   !- Surface Type
  ,                                       !- Construction Name
  {48c4842c-c8ab-48ba-a2ad-de65152f40a7}, !- Space Name
  Surface,                                !- Outside Boundary Condition
  {a69b088a-a2a2-4634-889a-66435eca18d4}, !- Outside Boundary Condition Object
  NoSun,                                  !- Sun Exposure
  NoWind,                                 !- Wind Exposure
  ,                                       !- View Factor to Ground
  ,                                       !- Number of Vertices
  3, 3, 4,                                !- X,Y,Z Vertex 1 {m}
  3, 3, 0,                                !- X,Y,Z Vertex 2 {m}
  3, 16.3649167310371, 0,                 !- X,Y,Z Vertex 3 {m}
  3, 16.3649167310371, 4;                 !- X,Y,Z Vertex 4 {m}

OS:Surface,
  {8bb64392-8aaa-45b1-9270-0970e26f0d60}, !- Handle
  Surface 5,                              !- Name
  Wall,                                   !- Surface Type
  ,                                       !- Construction Name
  {48c4842c-c8ab-48ba-a2ad-de65152f40a7}, !- Space Name
  Surface,                                !- Outside Boundary Condition
  {952d9184-fd2e-4a82-8d8e-ce66b63caa2f}, !- Outside Boundary Condition Object
  NoSun,                                  !- Sun Exposure
  NoWind,                                 !- Wind Exposure
  ,                                       !- View Factor to Ground
  ,                                       !- Number of Vertices
  0, 0, 4,                                !- X,Y,Z Vertex 1 {m}
  0, 0, 0,                                !- X,Y,Z Vertex 2 {m}
  3, 3, 0,                                !- X,Y,Z Vertex 3 {m}
  3, 3, 4;                                !- X,Y,Z Vertex 4 {m}

OS:Surface,
  {9b42cabc-1560-4be0-9d06-c46dabfffeef}, !- Handle
  Surface 6,                              !- Name
  RoofCeiling,                            !- Surface Type
  ,                                       !- Construction Name
  {48c4842c-c8ab-48ba-a2ad-de65152f40a7}, !- Space Name
  Surface,                                !- Outside Boundary Condition
  {c33cd4d9-4231-4b86-acba-35e8847759ab}, !- Outside Boundary Condition Object
  NoSun,                                  !- Sun Exposure
  NoWind,                                 !- Wind Exposure
  ,                                       !- View Factor to Ground
  ,                                       !- Number of Vertices
  3, 3, 4,                                !- X,Y,Z Vertex 1 {m}
  3, 16.3649167310371, 4,                 !- X,Y,Z Vertex 2 {m}
  0, 19.3649167310371, 4,                 !- X,Y,Z Vertex 3 {m}
  0, 0, 4;                                !- X,Y,Z Vertex 4 {m}

OS:Space,
  {edf716c6-7d42-426c-9fd5-e4962fa0fa13}, !- Handle
  Story 1 North Perimeter Space,          !- Name
  ,                                       !- Space Type Name
  ,                                       !- Default Construction Set Name
  ,                                       !- Default Schedule Set Name
  -0,                                     !- Direction of Relative North {deg}
  3,                                      !- X Origin {m}
  16.3649167310371,                       !- Y Origin {m}
  0,                                      !- Z Origin {m}
  {92280353-9846-4460-8cc4-e0a6d6ee6041}, !- Building Story Name
  {88735568-3634-4840-8783-60059a381ef7}; !- Thermal Zone Name

OS:Surface,
  {40876ab5-af92-4fa7-828f-4b13880d6422}, !- Handle
  Surface 7,                              !- Name
  Floor,                                  !- Surface Type
  ,                                       !- Construction Name
  {edf716c6-7d42-426c-9fd5-e4962fa0fa13}, !- Space Name
  Ground,                                 !- Outside Boundary Condition
  ,                                       !- Outside Boundary Condition Object
  NoSun,                                  !- Sun Exposure
  NoWind,                                 !- Wind Exposure
  ,                                       !- View Factor to Ground
  ,                                       !- Number of Vertices
  -3, 3.00000000000001, 0,                !- X,Y,Z Vertex 1 {m}
  16.3649167310371, 3.00000000000001, 0,  !- X,Y,Z Vertex 2 {m}
  13.3649167310371, 1.4210854715202e-14, 0, !- X,Y,Z Vertex 3 {m}
  0, 1.4210854715202e-14, 0;              !- X,Y,Z Vertex 4 {m}

OS:Surface,
  {f5a73cbc-4e6f-405f-90ea-284991fdcfb7}, !- Handle
  Surface 8,                              !- Name
  Wall,                                   !- Surface Type
  ,                                       !- Construction Name
  {edf716c6-7d42-426c-9fd5-e4962fa0fa13}, !- Space Name
  Outdoors,                               !- Outside Boundary Condition
  ,                                       !- Outside Boundary Condition Object
  SunExposed,                             !- Sun Exposure
  WindExposed,                            !- Wind Exposure
  ,                                       !- View Factor to Ground
  ,                                       !- Number of Vertices
  16.3649167310371, 3.00000000000001, 4,  !- X,Y,Z Vertex 1 {m}
  16.3649167310371, 3.00000000000001, 0,  !- X,Y,Z Vertex 2 {m}
  -3, 3.00000000000001, 0,                !- X,Y,Z Vertex 3 {m}
  -3, 3.00000000000001, 4;                !- X,Y,Z Vertex 4 {m}

OS:Surface,
  {f3df38f1-fc1d-4c35-b1cb-f44ac9ce8d2b}, !- Handle
  Surface 9,                              !- Name
  Wall,                                   !- Surface Type
  ,                                       !- Construction Name
  {edf716c6-7d42-426c-9fd5-e4962fa0fa13}, !- Space Name
  Surface,                                !- Outside Boundary Condition
  {628d1ac3-2bda-4750-bfa5-2c290498e74c}, !- Outside Boundary Condition Object
  NoSun,                                  !- Sun Exposure
  NoWind,                                 !- Wind Exposure
  ,                                       !- View Factor to Ground
  ,                                       !- Number of Vertices
  13.3649167310371, 1.4210854715202e-14, 4, !- X,Y,Z Vertex 1 {m}
  13.3649167310371, 1.4210854715202e-14, 0, !- X,Y,Z Vertex 2 {m}
  16.3649167310371, 3.00000000000001, 0,  !- X,Y,Z Vertex 3 {m}
  16.3649167310371, 3.00000000000001, 4;  !- X,Y,Z Vertex 4 {m}

OS:Surface,
  {451ad2c5-101f-413f-8ce1-b7db0b561007}, !- Handle
  Surface 10,                             !- Name
  Wall,                                   !- Surface Type
  ,                                       !- Construction Name
  {edf716c6-7d42-426c-9fd5-e4962fa0fa13}, !- Space Name
  Surface,                                !- Outside Boundary Condition
  {372456d7-0fd0-4ab3-b25b-6ef3210243e2}, !- Outside Boundary Condition Object
  NoSun,                                  !- Sun Exposure
  NoWind,                                 !- Wind Exposure
  ,                                       !- View Factor to Ground
  ,                                       !- Number of Vertices
  0, 1.4210854715202e-14, 4,              !- X,Y,Z Vertex 1 {m}
  0, 1.4210854715202e-14, 0,              !- X,Y,Z Vertex 2 {m}
  13.3649167310371, 1.4210854715202e-14, 0, !- X,Y,Z Vertex 3 {m}
  13.3649167310371, 1.4210854715202e-14, 4; !- X,Y,Z Vertex 4 {m}

OS:Surface,
  {7dce8da1-4526-4432-9bb0-b7142cb0c7cc}, !- Handle
  Surface 11,                             !- Name
  Wall,                                   !- Surface Type
  ,                                       !- Construction Name
  {edf716c6-7d42-426c-9fd5-e4962fa0fa13}, !- Space Name
  Surface,                                !- Outside Boundary Condition
  {cc2fbeba-e6b7-414e-884e-2ba28d55426d}, !- Outside Boundary Condition Object
  NoSun,                                  !- Sun Exposure
  NoWind,                                 !- Wind Exposure
  ,                                       !- View Factor to Ground
  ,                                       !- Number of Vertices
  -3, 3.00000000000001, 4,                !- X,Y,Z Vertex 1 {m}
  -3, 3.00000000000001, 0,                !- X,Y,Z Vertex 2 {m}
  0, 1.4210854715202e-14, 0,              !- X,Y,Z Vertex 3 {m}
  0, 1.4210854715202e-14, 4;              !- X,Y,Z Vertex 4 {m}

OS:Surface,
  {8176e4df-4606-4107-adfe-42c6ed53efe5}, !- Handle
  Surface 12,                             !- Name
  RoofCeiling,                            !- Surface Type
  ,                                       !- Construction Name
  {edf716c6-7d42-426c-9fd5-e4962fa0fa13}, !- Space Name
  Surface,                                !- Outside Boundary Condition
  {d7ae7b57-a08c-4b68-b55d-a8f6a56a4809}, !- Outside Boundary Condition Object
  NoSun,                                  !- Sun Exposure
  NoWind,                                 !- Wind Exposure
  ,                                       !- View Factor to Ground
  ,                                       !- Number of Vertices
  0, 1.4210854715202e-14, 4,              !- X,Y,Z Vertex 1 {m}
  13.3649167310371, 1.4210854715202e-14, 4, !- X,Y,Z Vertex 2 {m}
  16.3649167310371, 3.00000000000001, 4,  !- X,Y,Z Vertex 3 {m}
  -3, 3.00000000000001, 4;                !- X,Y,Z Vertex 4 {m}

OS:Space,
  {6e98ad8f-d852-420e-87c5-02ce2fbe1199}, !- Handle
  Story 1 East Perimeter Space,           !- Name
  ,                                       !- Space Type Name
  ,                                       !- Default Construction Set Name
  ,                                       !- Default Schedule Set Name
  -0,                                     !- Direction of Relative North {deg}
  16.3649167310371,                       !- X Origin {m}
  3,                                      !- Y Origin {m}
  0,                                      !- Z Origin {m}
  {92280353-9846-4460-8cc4-e0a6d6ee6041}, !- Building Story Name
  {a1ac0aeb-ff62-4ffd-bb70-6840670a793a}; !- Thermal Zone Name

OS:Surface,
  {96c2b538-f5e1-4010-845d-5fb6cb68237e}, !- Handle
  Surface 13,                             !- Name
  Floor,                                  !- Surface Type
  ,                                       !- Construction Name
  {6e98ad8f-d852-420e-87c5-02ce2fbe1199}, !- Space Name
  Ground,                                 !- Outside Boundary Condition
  ,                                       !- Outside Boundary Condition Object
  NoSun,                                  !- Sun Exposure
  NoWind,                                 !- Wind Exposure
  ,                                       !- View Factor to Ground
  ,                                       !- Number of Vertices
  3.00000000000001, 16.3649167310371, 0,  !- X,Y,Z Vertex 1 {m}
  3.00000000000001, -3, 0,                !- X,Y,Z Vertex 2 {m}
  1.4210854715202e-14, 0, 0,              !- X,Y,Z Vertex 3 {m}
  1.4210854715202e-14, 13.3649167310371, 0; !- X,Y,Z Vertex 4 {m}

OS:Surface,
  {d19cd8b7-208d-4b23-837e-c00e4f53cf6b}, !- Handle
  Surface 14,                             !- Name
  Wall,                                   !- Surface Type
  ,                                       !- Construction Name
  {6e98ad8f-d852-420e-87c5-02ce2fbe1199}, !- Space Name
  Outdoors,                               !- Outside Boundary Condition
  ,                                       !- Outside Boundary Condition Object
  SunExposed,                             !- Sun Exposure
  WindExposed,                            !- Wind Exposure
  ,                                       !- View Factor to Ground
  ,                                       !- Number of Vertices
  3.00000000000001, -3, 4,                !- X,Y,Z Vertex 1 {m}
  3.00000000000001, -3, 0,                !- X,Y,Z Vertex 2 {m}
  3.00000000000001, 16.3649167310371, 0,  !- X,Y,Z Vertex 3 {m}
  3.00000000000001, 16.3649167310371, 4;  !- X,Y,Z Vertex 4 {m}

OS:Surface,
  {d0144f72-58c0-44d4-a72b-92e25c72a9c8}, !- Handle
  Surface 15,                             !- Name
  Wall,                                   !- Surface Type
  ,                                       !- Construction Name
  {6e98ad8f-d852-420e-87c5-02ce2fbe1199}, !- Space Name
  Surface,                                !- Outside Boundary Condition
  {da702683-68b1-4a4d-bd1c-2b3f6fc7b9ea}, !- Outside Boundary Condition Object
  NoSun,                                  !- Sun Exposure
  NoWind,                                 !- Wind Exposure
  ,                                       !- View Factor to Ground
  ,                                       !- Number of Vertices
  1.4210854715202e-14, 0, 4,              !- X,Y,Z Vertex 1 {m}
  1.4210854715202e-14, 0, 0,              !- X,Y,Z Vertex 2 {m}
  3.00000000000001, -3, 0,                !- X,Y,Z Vertex 3 {m}
  3.00000000000001, -3, 4;                !- X,Y,Z Vertex 4 {m}

OS:Surface,
  {179fe038-8e60-430f-a8cb-e48e79952099}, !- Handle
  Surface 16,                             !- Name
  Wall,                                   !- Surface Type
  ,                                       !- Construction Name
  {6e98ad8f-d852-420e-87c5-02ce2fbe1199}, !- Space Name
  Surface,                                !- Outside Boundary Condition
  {44d49844-dd01-46a1-a85e-e9270e7529e6}, !- Outside Boundary Condition Object
  NoSun,                                  !- Sun Exposure
  NoWind,                                 !- Wind Exposure
  ,                                       !- View Factor to Ground
  ,                                       !- Number of Vertices
  1.4210854715202e-14, 13.3649167310371, 4, !- X,Y,Z Vertex 1 {m}
  1.4210854715202e-14, 13.3649167310371, 0, !- X,Y,Z Vertex 2 {m}
  1.4210854715202e-14, 0, 0,              !- X,Y,Z Vertex 3 {m}
  1.4210854715202e-14, 0, 4;              !- X,Y,Z Vertex 4 {m}

OS:Surface,
  {628d1ac3-2bda-4750-bfa5-2c290498e74c}, !- Handle
  Surface 17,                             !- Name
  Wall,                                   !- Surface Type
  ,                                       !- Construction Name
  {6e98ad8f-d852-420e-87c5-02ce2fbe1199}, !- Space Name
  Surface,                                !- Outside Boundary Condition
  {f3df38f1-fc1d-4c35-b1cb-f44ac9ce8d2b}, !- Outside Boundary Condition Object
  NoSun,                                  !- Sun Exposure
  NoWind,                                 !- Wind Exposure
  ,                                       !- View Factor to Ground
  ,                                       !- Number of Vertices
  3.00000000000001, 16.3649167310371, 4,  !- X,Y,Z Vertex 1 {m}
  3.00000000000001, 16.3649167310371, 0,  !- X,Y,Z Vertex 2 {m}
  1.4210854715202e-14, 13.3649167310371, 0, !- X,Y,Z Vertex 3 {m}
  1.4210854715202e-14, 13.3649167310371, 4; !- X,Y,Z Vertex 4 {m}

OS:Surface,
  {3696e5f9-26e1-4bad-a05e-5b6db40bf943}, !- Handle
  Surface 18,                             !- Name
  RoofCeiling,                            !- Surface Type
  ,                                       !- Construction Name
  {6e98ad8f-d852-420e-87c5-02ce2fbe1199}, !- Space Name
  Surface,                                !- Outside Boundary Condition
  {e19e08e8-2857-42e5-b9b8-9ba3828c8c99}, !- Outside Boundary Condition Object
  NoSun,                                  !- Sun Exposure
  NoWind,                                 !- Wind Exposure
  ,                                       !- View Factor to Ground
  ,                                       !- Number of Vertices
  1.4210854715202e-14, 13.3649167310371, 4, !- X,Y,Z Vertex 1 {m}
  1.4210854715202e-14, 0, 4,              !- X,Y,Z Vertex 2 {m}
  3.00000000000001, -3, 4,                !- X,Y,Z Vertex 3 {m}
  3.00000000000001, 16.3649167310371, 4;  !- X,Y,Z Vertex 4 {m}

OS:Space,
  {ebc5ef0a-4278-46f6-8d3d-f0c61ad8fda8}, !- Handle
  Story 1 South Perimeter Space,          !- Name
  ,                                       !- Space Type Name
  ,                                       !- Default Construction Set Name
  ,                                       !- Default Schedule Set Name
  -0,                                     !- Direction of Relative North {deg}
  0,                                      !- X Origin {m}
  0,                                      !- Y Origin {m}
  0,                                      !- Z Origin {m}
  {92280353-9846-4460-8cc4-e0a6d6ee6041}, !- Building Story Name
  {2b1c980e-955c-47c4-8882-28c02595cc60}; !- Thermal Zone Name

OS:Surface,
  {39c77c7e-0f1e-4753-83d0-e316268f6ef2}, !- Handle
  Surface 19,                             !- Name
  Floor,                                  !- Surface Type
  ,                                       !- Construction Name
  {ebc5ef0a-4278-46f6-8d3d-f0c61ad8fda8}, !- Space Name
  Ground,                                 !- Outside Boundary Condition
  ,                                       !- Outside Boundary Condition Object
  NoSun,                                  !- Sun Exposure
  NoWind,                                 !- Wind Exposure
  ,                                       !- View Factor to Ground
  ,                                       !- Number of Vertices
  19.3649167310371, 0, 0,                 !- X,Y,Z Vertex 1 {m}
  0, 0, 0,                                !- X,Y,Z Vertex 2 {m}
  3, 3, 0,                                !- X,Y,Z Vertex 3 {m}
  16.3649167310371, 3, 0;                 !- X,Y,Z Vertex 4 {m}

OS:Surface,
  {febe6f77-13c1-4bc5-a17c-7dc1af63f42b}, !- Handle
  Surface 20,                             !- Name
  Wall,                                   !- Surface Type
  ,                                       !- Construction Name
  {ebc5ef0a-4278-46f6-8d3d-f0c61ad8fda8}, !- Space Name
  Outdoors,                               !- Outside Boundary Condition
  ,                                       !- Outside Boundary Condition Object
  SunExposed,                             !- Sun Exposure
  WindExposed,                            !- Wind Exposure
  ,                                       !- View Factor to Ground
  ,                                       !- Number of Vertices
  0, 0, 4,                                !- X,Y,Z Vertex 1 {m}
  0, 0, 0,                                !- X,Y,Z Vertex 2 {m}
  19.3649167310371, 0, 0,                 !- X,Y,Z Vertex 3 {m}
  19.3649167310371, 0, 4;                 !- X,Y,Z Vertex 4 {m}

OS:Surface,
  {952d9184-fd2e-4a82-8d8e-ce66b63caa2f}, !- Handle
  Surface 21,                             !- Name
  Wall,                                   !- Surface Type
  ,                                       !- Construction Name
  {ebc5ef0a-4278-46f6-8d3d-f0c61ad8fda8}, !- Space Name
  Surface,                                !- Outside Boundary Condition
  {8bb64392-8aaa-45b1-9270-0970e26f0d60}, !- Outside Boundary Condition Object
  NoSun,                                  !- Sun Exposure
  NoWind,                                 !- Wind Exposure
  ,                                       !- View Factor to Ground
  ,                                       !- Number of Vertices
  3, 3, 4,                                !- X,Y,Z Vertex 1 {m}
  3, 3, 0,                                !- X,Y,Z Vertex 2 {m}
  0, 0, 0,                                !- X,Y,Z Vertex 3 {m}
  0, 0, 4;                                !- X,Y,Z Vertex 4 {m}

OS:Surface,
  {9e7737a0-d11d-4fbf-b3d5-10e627ace817}, !- Handle
  Surface 22,                             !- Name
  Wall,                                   !- Surface Type
  ,                                       !- Construction Name
  {ebc5ef0a-4278-46f6-8d3d-f0c61ad8fda8}, !- Space Name
  Surface,                                !- Outside Boundary Condition
  {2e6d8e02-a67c-4464-b4fe-5f2a95fe4278}, !- Outside Boundary Condition Object
  NoSun,                                  !- Sun Exposure
  NoWind,                                 !- Wind Exposure
  ,                                       !- View Factor to Ground
  ,                                       !- Number of Vertices
  16.3649167310371, 3, 4,                 !- X,Y,Z Vertex 1 {m}
  16.3649167310371, 3, 0,                 !- X,Y,Z Vertex 2 {m}
  3, 3, 0,                                !- X,Y,Z Vertex 3 {m}
  3, 3, 4;                                !- X,Y,Z Vertex 4 {m}

OS:Surface,
  {da702683-68b1-4a4d-bd1c-2b3f6fc7b9ea}, !- Handle
  Surface 23,                             !- Name
  Wall,                                   !- Surface Type
  ,                                       !- Construction Name
  {ebc5ef0a-4278-46f6-8d3d-f0c61ad8fda8}, !- Space Name
  Surface,                                !- Outside Boundary Condition
  {d0144f72-58c0-44d4-a72b-92e25c72a9c8}, !- Outside Boundary Condition Object
  NoSun,                                  !- Sun Exposure
  NoWind,                                 !- Wind Exposure
  ,                                       !- View Factor to Ground
  ,                                       !- Number of Vertices
  19.3649167310371, 0, 4,                 !- X,Y,Z Vertex 1 {m}
  19.3649167310371, 0, 0,                 !- X,Y,Z Vertex 2 {m}
  16.3649167310371, 3, 0,                 !- X,Y,Z Vertex 3 {m}
  16.3649167310371, 3, 4;                 !- X,Y,Z Vertex 4 {m}

OS:Surface,
  {b49d7622-fc8a-42e2-8749-981d79503eed}, !- Handle
  Surface 24,                             !- Name
  RoofCeiling,                            !- Surface Type
  ,                                       !- Construction Name
  {ebc5ef0a-4278-46f6-8d3d-f0c61ad8fda8}, !- Space Name
  Surface,                                !- Outside Boundary Condition
  {a79900a7-ce3d-4ce2-9a58-9df46b1a49e2}, !- Outside Boundary Condition Object
  NoSun,                                  !- Sun Exposure
  NoWind,                                 !- Wind Exposure
  ,                                       !- View Factor to Ground
  ,                                       !- Number of Vertices
  16.3649167310371, 3, 4,                 !- X,Y,Z Vertex 1 {m}
  3, 3, 4,                                !- X,Y,Z Vertex 2 {m}
  0, 0, 4,                                !- X,Y,Z Vertex 3 {m}
  19.3649167310371, 0, 4;                 !- X,Y,Z Vertex 4 {m}

OS:Space,
  {3378dd6c-eae7-44b1-8c9e-c38fd1a04764}, !- Handle
  Story 1 Core Space,                     !- Name
  ,                                       !- Space Type Name
  ,                                       !- Default Construction Set Name
  ,                                       !- Default Schedule Set Name
  -0,                                     !- Direction of Relative North {deg}
  3,                                      !- X Origin {m}
  3,                                      !- Y Origin {m}
  0,                                      !- Z Origin {m}
  {92280353-9846-4460-8cc4-e0a6d6ee6041}, !- Building Story Name
  {3001b25a-daba-4cf6-98d1-e3a60b08e7dd}; !- Thermal Zone Name

OS:Surface,
  {8b064988-1198-43bf-9e7c-c991020ed83d}, !- Handle
  Surface 25,                             !- Name
  Floor,                                  !- Surface Type
  ,                                       !- Construction Name
  {3378dd6c-eae7-44b1-8c9e-c38fd1a04764}, !- Space Name
  Ground,                                 !- Outside Boundary Condition
  ,                                       !- Outside Boundary Condition Object
  NoSun,                                  !- Sun Exposure
  NoWind,                                 !- Wind Exposure
  ,                                       !- View Factor to Ground
  ,                                       !- Number of Vertices
  0, 0, 0,                                !- X,Y,Z Vertex 1 {m}
  0, 13.3649167310371, 0,                 !- X,Y,Z Vertex 2 {m}
  13.3649167310371, 13.3649167310371, 0,  !- X,Y,Z Vertex 3 {m}
  13.3649167310371, 0, 0;                 !- X,Y,Z Vertex 4 {m}

OS:Surface,
  {a69b088a-a2a2-4634-889a-66435eca18d4}, !- Handle
  Surface 26,                             !- Name
  Wall,                                   !- Surface Type
  ,                                       !- Construction Name
  {3378dd6c-eae7-44b1-8c9e-c38fd1a04764}, !- Space Name
  Surface,                                !- Outside Boundary Condition
  {ddf913cb-f6e9-478d-90d0-81188e840a62}, !- Outside Boundary Condition Object
  NoSun,                                  !- Sun Exposure
  NoWind,                                 !- Wind Exposure
  ,                                       !- View Factor to Ground
  ,                                       !- Number of Vertices
  0, 13.3649167310371, 4,                 !- X,Y,Z Vertex 1 {m}
  0, 13.3649167310371, 0,                 !- X,Y,Z Vertex 2 {m}
  0, 0, 0,                                !- X,Y,Z Vertex 3 {m}
  0, 0, 4;                                !- X,Y,Z Vertex 4 {m}

OS:Surface,
  {372456d7-0fd0-4ab3-b25b-6ef3210243e2}, !- Handle
  Surface 27,                             !- Name
  Wall,                                   !- Surface Type
  ,                                       !- Construction Name
  {3378dd6c-eae7-44b1-8c9e-c38fd1a04764}, !- Space Name
  Surface,                                !- Outside Boundary Condition
  {451ad2c5-101f-413f-8ce1-b7db0b561007}, !- Outside Boundary Condition Object
  NoSun,                                  !- Sun Exposure
  NoWind,                                 !- Wind Exposure
  ,                                       !- View Factor to Ground
  ,                                       !- Number of Vertices
  13.3649167310371, 13.3649167310371, 4,  !- X,Y,Z Vertex 1 {m}
  13.3649167310371, 13.3649167310371, 0,  !- X,Y,Z Vertex 2 {m}
  0, 13.3649167310371, 0,                 !- X,Y,Z Vertex 3 {m}
  0, 13.3649167310371, 4;                 !- X,Y,Z Vertex 4 {m}

OS:Surface,
  {44d49844-dd01-46a1-a85e-e9270e7529e6}, !- Handle
  Surface 28,                             !- Name
  Wall,                                   !- Surface Type
  ,                                       !- Construction Name