
OS:Version,
  {52e612f6-a632-4089-b7e9-7cc55cfa4382}, !- Handle
  0.10.0;                                 !- Version Identifier

OS:Schedule:Ruleset,
  {b17f878f-483b-4c8d-88bc-48eaffc41529}, !- Handle
  Always_On,                              !- Name
  {dc27bdeb-3586-453f-8c5c-ab1606bcec70}, !- Schedule Type Limits Name
  {806144ba-77f3-437c-8e1b-aeb12ff2f3eb}, !- Default Day Schedule Name
  {7f3cb22e-a78c-400e-b107-327de7885958}, !- Summer Design Day Schedule Name
  {ef85aba2-7c30-4192-8009-e87b38f57e92}; !- Winter Design Day Schedule Name

OS:Schedule:Day,
  {806144ba-77f3-437c-8e1b-aeb12ff2f3eb}, !- Handle
  Always_On_Default,                      !- Name
  {dc27bdeb-3586-453f-8c5c-ab1606bcec70}, !- Schedule Type Limits Name
  ,                                       !- Interpolate to Timestep
  24,                                     !- Hour 1
  0,                                      !- Minute 1
  1;                                      !- Value Until Time 1

OS:Schedule:Day,
  {7f3cb22e-a78c-400e-b107-327de7885958}, !- Handle
  Always_On_Summer_Design_Day,            !- Name
  {dc27bdeb-3586-453f-8c5c-ab1606bcec70}, !- Schedule Type Limits Name
  ,                                       !- Interpolate to Timestep
  24,                                     !- Hour 1
  0,                                      !- Minute 1
  1;                                      !- Value Until Time 1

OS:Schedule:Day,
  {ef85aba2-7c30-4192-8009-e87b38f57e92}, !- Handle
  Always_On_Winter_Design_Day,            !- Name
  {dc27bdeb-3586-453f-8c5c-ab1606bcec70}, !- Schedule Type Limits Name
  ,                                       !- Interpolate to Timestep
  24,                                     !- Hour 1
  0,                                      !- Minute 1
  1;                                      !- Value Until Time 1

OS:Schedule:Ruleset,
  {be04c987-7465-46de-afb5-24fc489c3e4b}, !- Handle
  Deck_Temperature,                       !- Name
  {e0f2d881-2c25-4691-9789-853371fc506c}, !- Schedule Type Limits Name
  {dd84238f-39f5-46c5-ba18-c44d42786ff3}, !- Default Day Schedule Name
  {6161990e-190f-4c82-b87e-09ec15e8869f}, !- Summer Design Day Schedule Name
  {4a4363da-867b-4888-90c7-0c620884c9a3}; !- Winter Design Day Schedule Name

OS:Schedule:Day,
  {dd84238f-39f5-46c5-ba18-c44d42786ff3}, !- Handle
  Deck_Temperature_Default,               !- Name
  {e0f2d881-2c25-4691-9789-853371fc506c}, !- Schedule Type Limits Name
  ,                                       !- Interpolate to Timestep
  24,                                     !- Hour 1
  0,                                      !- Minute 1
  12.8;                                   !- Value Until Time 1

OS:Schedule:Day,
  {6161990e-190f-4c82-b87e-09ec15e8869f}, !- Handle
  Deck_Temperature_Summer_Design_Day,     !- Name
  {e0f2d881-2c25-4691-9789-853371fc506c}, !- Schedule Type Limits Name
  ,                                       !- Interpolate to Timestep
  24,                                     !- Hour 1
  0,                                      !- Minute 1
  12.8;                                   !- Value Until Time 1

OS:Schedule:Day,
  {4a4363da-867b-4888-90c7-0c620884c9a3}, !- Handle
  Deck_Temperature_Winter_Design_Day,     !- Name
  {e0f2d881-2c25-4691-9789-853371fc506c}, !- Schedule Type Limits Name
  ,                                       !- Interpolate to Timestep
  24,                                     !- Hour 1
  0,                                      !- Minute 1
  12.8;                                   !- Value Until Time 1

OS:Schedule:Ruleset,
  {948c7c7d-2b3d-4344-8197-19ec99a96e0a}, !- Handle
  Hot_Water_Temperature,                  !- Name
  {53f1f409-dfd8-4046-8176-cfdfc51b9172}, !- Schedule Type Limits Name
  {87b23885-e258-4cc4-adbd-64cbc3000e71}, !- Default Day Schedule Name
  {46e3f4da-bd4e-47fd-b4a5-f04080a3dc3b}, !- Summer Design Day Schedule Name
  {96a0f368-18b8-47f6-995a-33bc69bcf6bb}; !- Winter Design Day Schedule Name

OS:Schedule:Day,
  {87b23885-e258-4cc4-adbd-64cbc3000e71}, !- Handle
  Hot_Water_Temperature_Default,          !- Name
  {53f1f409-dfd8-4046-8176-cfdfc51b9172}, !- Schedule Type Limits Name
  ,                                       !- Interpolate to Timestep
  24,                                     !- Hour 1
  0,                                      !- Minute 1
  67;                                     !- Value Until Time 1

OS:Schedule:Day,
  {46e3f4da-bd4e-47fd-b4a5-f04080a3dc3b}, !- Handle
  Hot_Water_Temperature_Summer_Design_Day, !- Name
  {53f1f409-dfd8-4046-8176-cfdfc51b9172}, !- Schedule Type Limits Name
  ,                                       !- Interpolate to Timestep
  24,                                     !- Hour 1
  0,                                      !- Minute 1
  67;                                     !- Value Until Time 1

OS:Schedule:Day,
  {96a0f368-18b8-47f6-995a-33bc69bcf6bb}, !- Handle
  Hot_Water_Temperature_Winter_Design_Day, !- Name
  {53f1f409-dfd8-4046-8176-cfdfc51b9172}, !- Schedule Type Limits Name
  ,                                       !- Interpolate to Timestep
  24,                                     !- Hour 1
  0,                                      !- Minute 1
  67;                                     !- Value Until Time 1

OS:Schedule:Ruleset,
  {79d3f069-723b-4a31-a365-73493895d2e8}, !- Handle
  Chilled_Water_Temperature,              !- Name
  ,                                       !- Schedule Type Limits Name
  {f9f302b1-2b83-4535-b7e8-e92528302bd3}, !- Default Day Schedule Name
  {0a4e429a-46c0-4ee5-8f2b-3d50e18d9a20}, !- Summer Design Day Schedule Name
  {05837fc6-ff2d-417e-b531-ca4ea8d65391}; !- Winter Design Day Schedule Name

OS:Schedule:Day,
  {f9f302b1-2b83-4535-b7e8-e92528302bd3}, !- Handle
  Chilled_Water_Temperature_Default,      !- Name
  ,                                       !- Schedule Type Limits Name
  ,                                       !- Interpolate to Timestep
  24,                                     !- Hour 1
  0,                                      !- Minute 1
  6.7;                                    !- Value Until Time 1

OS:Schedule:Day,
  {0a4e429a-46c0-4ee5-8f2b-3d50e18d9a20}, !- Handle
  Chilled_Water_Temperature_Summer_Design_Day, !- Name
  ,                                       !- Schedule Type Limits Name
  ,                                       !- Interpolate to Timestep
  24,                                     !- Hour 1
  0,                                      !- Minute 1
  6.7;                                    !- Value Until Time 1

OS:Schedule:Day,
  {05837fc6-ff2d-417e-b531-ca4ea8d65391}, !- Handle
  Chilled_Water_Temperature_Winter_Design_Day, !- Name
  ,                                       !- Schedule Type Limits Name
  ,                                       !- Interpolate to Timestep
  24,                                     !- Hour 1
  0,                                      !- Minute 1
  6.7;                                    !- Value Until Time 1

OS:AirLoopHVAC,
  {57a067ba-8730-4aa0-8661-baa2e7c9a9f4}, !- Handle
  Air Loop HVAC 1,                        !- Name
  ,                                       !- Controller List Name
  ,                                       !- Availability Manager List Name
  AutoSize,                               !- Design Supply Air Flow Rate {m3/s}
  ,                                       !- Branch List Name
  ,                                       !- Connector List Name
  {3d19075b-68bf-4982-8113-2a9375033d5d}, !- Supply Side Inlet Node Name
  {e48ae7cf-8451-47d7-9fc0-aee9ea93e53b}, !- Demand Side Outlet Node Name
  {8c1347af-dbdf-43e4-bad5-5b17aa76713c}, !- Demand Side Inlet Node Names
  {d53855f7-f826-4185-b7b3-d6a7515fe11e}; !- Supply Side Outlet Node Names

OS:Node,
  {2919aae0-4b87-4d4d-aef2-18e094cd7829}, !- Handle
  Node 1,                                 !- Name
  {3d19075b-68bf-4982-8113-2a9375033d5d}, !- Inlet Port
  {832f674a-78b9-4043-be25-894eed9ad6ed}; !- Outlet Port

OS:Node,
  {1e99807d-0152-4a69-9be9-f6f6cfac06dd}, !- Handle
  Node 2,                                 !- Name
  {50784dfa-2285-4efb-84b6-64f8d7aef6d5}, !- Inlet Port
  {d53855f7-f826-4185-b7b3-d6a7515fe11e}; !- Outlet Port

OS:Connection,
  {3d19075b-68bf-4982-8113-2a9375033d5d}, !- Handle
  Connection 1,                           !- Name
  {57a067ba-8730-4aa0-8661-baa2e7c9a9f4}, !- Source Object
  7,                                      !- Outlet Port
  {2919aae0-4b87-4d4d-aef2-18e094cd7829}, !- Target Object
  2;                                      !- Inlet Port

OS:Connection,
  {d53855f7-f826-4185-b7b3-d6a7515fe11e}, !- Handle
  Connection 3,                           !- Name
  {1e99807d-0152-4a69-9be9-f6f6cfac06dd}, !- Source Object
  3,                                      !- Outlet Port
  {57a067ba-8730-4aa0-8661-baa2e7c9a9f4}, !- Target Object
  10;                                     !- Inlet Port

OS:Node,
  {d041b1f5-e8c0-485d-8068-760ee694f465}, !- Handle
  Node 3,                                 !- Name
  {8c1347af-dbdf-43e4-bad5-5b17aa76713c}, !- Inlet Port
  {ee7358e5-bba0-434f-b84d-215ca08004ba}; !- Outlet Port

OS:Node,
  {50ca9ef8-1f05-4888-a649-472752894d12}, !- Handle
  Node 4,                                 !- Name
  {befa748b-384d-4169-968f-ef2e54ceabd4}, !- Inlet Port
  {e48ae7cf-8451-47d7-9fc0-aee9ea93e53b}; !- Outlet Port

OS:Node,
  {f6299179-c3de-4d34-aa23-beff47312efa}, !- Handle
  Node 5,                                 !- Name
  {5011c534-61c5-4684-9173-9ab9c5c82d79}, !- Inlet Port
  {32d937d8-e427-4bfe-86e4-b413e40d21bb}; !- Outlet Port

OS:Connection,
  {8c1347af-dbdf-43e4-bad5-5b17aa76713c}, !- Handle
  Connection 4,                           !- Name
  {57a067ba-8730-4aa0-8661-baa2e7c9a9f4}, !- Source Object
  9,                                      !- Outlet Port
  {d041b1f5-e8c0-485d-8068-760ee694f465}, !- Target Object
  2;                                      !- Inlet Port

OS:Connection,
  {e48ae7cf-8451-47d7-9fc0-aee9ea93e53b}, !- Handle
  Connection 5,                           !- Name
  {50ca9ef8-1f05-4888-a649-472752894d12}, !- Source Object
  3,                                      !- Outlet Port
  {57a067ba-8730-4aa0-8661-baa2e7c9a9f4}, !- Target Object
  8;                                      !- Inlet Port

OS:AirLoopHVAC:ZoneSplitter,
  {842e483b-cbf1-4ce9-8210-44e830f09dba}, !- Handle
  Air Loop HVAC Zone Splitter 1,          !- Name
  {ee7358e5-bba0-434f-b84d-215ca08004ba}, !- Inlet Node Name
  {fb3d7dcd-e521-43a5-8059-f4108989b174}; !- Outlet Node Name 1

OS:AirLoopHVAC:ZoneMixer,
  {42e02eef-6f4a-4362-87df-9d09ea2363a0}, !- Handle
  Air Loop HVAC Zone Mixer 1,             !- Name
  {befa748b-384d-4169-968f-ef2e54ceabd4}, !- Outlet Node Name
  {32d937d8-e427-4bfe-86e4-b413e40d21bb}; !- Inlet Node Name 1

OS:Connection,
  {ee7358e5-bba0-434f-b84d-215ca08004ba}, !- Handle
  Connection 6,                           !- Name
  {d041b1f5-e8c0-485d-8068-760ee694f465}, !- Source Object
  3,                                      !- Outlet Port
  {842e483b-cbf1-4ce9-8210-44e830f09dba}, !- Target Object
  2;                                      !- Inlet Port

OS:Connection,
  {32d937d8-e427-4bfe-86e4-b413e40d21bb}, !- Handle
  Connection 8,                           !- Name
  {f6299179-c3de-4d34-aa23-beff47312efa}, !- Source Object
  3,                                      !- Outlet Port
  {42e02eef-6f4a-4362-87df-9d09ea2363a0}, !- Target Object
  3;                                      !- Inlet Port

OS:Connection,
  {befa748b-384d-4169-968f-ef2e54ceabd4}, !- Handle
  Connection 9,                           !- Name
  {42e02eef-6f4a-4362-87df-9d09ea2363a0}, !- Source Object
  2,                                      !- Outlet Port
  {50ca9ef8-1f05-4888-a649-472752894d12}, !- Target Object
  2;                                      !- Inlet Port

OS:Sizing:System,
  {952ab231-5d7a-4849-a9c0-c53ed2ad81e6}, !- Handle
  {57a067ba-8730-4aa0-8661-baa2e7c9a9f4}, !- AirLoop Name
  Sensible,                               !- Type of Load to Size On
  Autosize,                               !- Design Outdoor Air Flow Rate {m3/s}
  0.3,                                    !- Minimum System Air Flow Ratio
  7,                                      !- Preheat Design Temperature {C}
  0.008,                                  !- Preheat Design Humidity Ratio {kg-H2O/kg-Air}
  12.8,                                   !- Precool Design Temperature {C}
  0.008,                                  !- Precool Design Humidity Ratio {kg-H2O/kg-Air}
  12.8,                                   !- Central Cooling Design Supply Air Temperature {C}
  12.8,                                   !- Central Heating Design Supply Air Temperature {C}
  NonCoincident,                          !- Sizing Option
  Yes,                                    !- 100% Outdoor Air in Cooling
  Yes,                                    !- 100% Outdoor Air in Heating
  0.0085,                                 !- Central Cooling Design Supply Air Humidity Ratio {kg-H2O/kg-Air}
  0.008,                                  !- Central Heating Design Supply Air Humidity Ratio {kg-H2O/kg-Air}
  DesignDay,                              !- Cooling Design Air Flow Method
  0,                                      !- Cooling Design Air Flow Rate {m3/s}
  DesignDay,                              !- Heating Design Air Flow Method
  0,                                      !- Heating Design Air Flow Rate {m3/s}
  ZoneSum;                                !- System Outdoor Air Method

OS:Fan:VariableVolume,
  {29da1d83-f6c8-467d-8570-a192029c3ea8}, !- Handle
  Fan Variable Volume 1,                  !- Name
  {b17f878f-483b-4c8d-88bc-48eaffc41529}, !- Availability Schedule Name
  0.5,                                    !- Fan Efficiency
  500,                                    !- Pressure Rise {Pa}
  Autosize,                               !- Maximum Flow Rate {m3/s}
  FixedFlowRate,                          !- Fan Power Minimum Flow Rate Input Method
  0,                                      !- Fan Power Minimum Flow Fraction
  0,                                      !- Fan Power Minimum Air Flow Rate {m3/s}
  0.93,                                   !- Motor Efficiency
  1,                                      !- Motor In Airstream Fraction
  0.040759894,                            !- Fan Power Coefficient 1
  0.08804497,                             !- Fan Power Coefficient 2
  -0.07292612,                            !- Fan Power Coefficient 3
  0.943739823,                            !- Fan Power Coefficient 4
  0,                                      !- Fan Power Coefficient 5
  {a8d3717e-1b1a-460a-926e-be45011b8b6b}, !- Air Inlet Node Name
  {50784dfa-2285-4efb-84b6-64f8d7aef6d5}, !- Air Outlet Node Name
  ;                                       !- End-Use Subcategory

OS:ScheduleTypeLimits,
  {dc27bdeb-3586-453f-8c5c-ab1606bcec70}, !- Handle
  OnOff,                                  !- Name
  0,                                      !- Lower Limit Value {BasedOnField A4}
  1,                                      !- Upper Limit Value {BasedOnField A4}
  Discrete,                               !- Numeric Type
  Availability;                           !- Unit Type

OS:Coil:Heating:Water,
  {c13d24ef-01e9-404d-b0db-8900587953be}, !- Handle
  Coil Heating Water 1,                   !- Name
  {b17f878f-483b-4c8d-88bc-48eaffc41529}, !- Availability Schedule Name
  ,                                       !- U-Factor Times Area Value {W/K}
  ,                                       !- Maximum Water Flow Rate {m3/s}
  {564de655-bb64-4cb3-95aa-fbd4ae50014f}, !- Water Inlet Node Name
  {34cf3a7d-49d8-4401-af3a-93cf0ff32cf6}, !- Water Outlet Node Name
  {420b0ba3-b347-4c3c-ba05-4055bbdb8d7d}, !- Air Inlet Node Name
  {c586ef51-e612-4f40-b3c7-92f1f5577f00}, !- Air Outlet Node Name
  ,                                       !- Performance Input Method
  ,                                       !- Rated Capacity {W}
  ,                                       !- Rated Inlet Water Temperature {C}
  ,                                       !- Rated Inlet Air Temperature {C}
  ,                                       !- Rated Outlet Water Temperature {C}
  ,                                       !- Rated Outlet Air Temperature {C}
  ;                                       !- Rated Ratio for Air and Water Convection

OS:Curve:Biquadratic,
  {05485282-caea-4e1e-a3e2-6c6c222816c4}, !- Handle
  Curve Biquadratic 1,                    !- Name
  0.42415,                                !- Coefficient1 Constant
  0.04426,                                !- Coefficient2 x
  -0.00042,                               !- Coefficient3 x**2
  0.00333,                                !- Coefficient4 y
  -8e-05,                                 !- Coefficient5 y**2
  -0.00021,                               !- Coefficient6 x*y
  17,                                     !- Minimum Value of x {BasedOnField A2}
  22,                                     !- Maximum Value of x {BasedOnField A2}
  13,                                     !- Minimum Value of y {BasedOnField A3}
  46;                                     !- Maximum Value of y {BasedOnField A3}

OS:Curve:Quadratic,
  {1708d079-5c6b-4372-96cc-93bcf32c3eec}, !- Handle
  Curve Quadratic 1,                      !- Name
  0.77136,                                !- Coefficient1 Constant
  0.34053,                                !- Coefficient2 x
  -0.11088,                               !- Coefficient3 x**2
  0.75918,                                !- Minimum Value of x {BasedOnField A2}
  1.13877;                                !- Maximum Value of x {BasedOnField A2}

OS:Curve:Biquadratic,
  {87edb689-5cb3-4d65-b54f-bafd45b2487d}, !- Handle
  Curve Biquadratic 2,                    !- Name
  1.23649,                                !- Coefficient1 Constant
  -0.02431,                               !- Coefficient2 x
  0.00057,                                !- Coefficient3 x**2
  -0.01434,                               !- Coefficient4 y
  0.00063,                                !- Coefficient5 y**2
  -0.00038,                               !- Coefficient6 x*y
  17,                                     !- Minimum Value of x {BasedOnField A2}
  22,                                     !- Maximum Value of x {BasedOnField A2}
  13,                                     !- Minimum Value of y {BasedOnField A3}
  46;                                     !- Maximum Value of y {BasedOnField A3}

OS:Curve:Quadratic,
  {41c89fb6-1f89-4f02-9e29-36e0c7fed492}, !- Handle
  Curve Quadratic 2,                      !- Name
  1.2055,                                 !- Coefficient1 Constant
  -0.32953,                               !- Coefficient2 x
  0.12308,                                !- Coefficient3 x**2
  0.75918,                                !- Minimum Value of x {BasedOnField A2}
  1.13877;                                !- Maximum Value of x {BasedOnField A2}

OS:Curve:Quadratic,
  {0ba7e3a1-2dc0-4797-a7e0-3634196ed180}, !- Handle
  Curve Quadratic 3,                      !- Name
  0.771,                                  !- Coefficient1 Constant
  0.229,                                  !- Coefficient2 x
  0,                                      !- Coefficient3 x**2
  0,                                      !- Minimum Value of x {BasedOnField A2}
  1;                                      !- Maximum Value of x {BasedOnField A2}

OS:Curve:Biquadratic,
  {46ef3afa-381c-450a-93ce-1cd6f6eb5e72}, !- Handle
  Curve Biquadratic 3,                    !- Name
  0,                                      !- Coefficient1 Constant
  0,                                      !- Coefficient2 x
  0,                                      !- Coefficient3 x**2
  0,                                      !- Coefficient4 y
  0,                                      !- Coefficient5 y**2
  0,                                      !- Coefficient6 x*y
  0,                                      !- Minimum Value of x {BasedOnField A2}
  1,                                      !- Maximum Value of x {BasedOnField A2}
  0,                                      !- Minimum Value of y {BasedOnField A3}
  1;                                      !- Maximum Value of y {BasedOnField A3}

OS:Curve:Biquadratic,
  {3f030c33-77c6-479d-b4da-19a77feabdbc}, !- Handle
  Curve Biquadratic 4,                    !- Name
  0,                                      !- Coefficient1 Constant
  0,                                      !- Coefficient2 x
  0,                                      !- Coefficient3 x**2
  0,                                      !- Coefficient4 y
  0,                                      !- Coefficient5 y**2
  0,                                      !- Coefficient6 x*y
  0,                                      !- Minimum Value of x {BasedOnField A2}
  1,                                      !- Maximum Value of x {BasedOnField A2}
  0,                                      !- Minimum Value of y {BasedOnField A3}
  1;                                      !- Maximum Value of y {BasedOnField A3}

OS:Coil:Cooling:DX:TwoSpeed,
  {c9cfb91f-e1ed-4e4d-8baf-44b9da57656a}, !- Handle
  Coil Cooling DX Two Speed 1,            !- Name
  {b17f878f-483b-4c8d-88bc-48eaffc41529}, !- Availability Schedule Name
  Autosize,                               !- Rated High Speed Total Cooling Capacity {W}
  Autosize,                               !- Rated High Speed Sensible Heat Ratio
  5.5,                                    !- Rated High Speed COP {W/W}
  Autosize,                               !- Rated High Speed Air Flow Rate {m3/s}
  {3f1b2e10-ad94-4b73-9631-2aa153e1ceab}, !- Air Inlet Node Name
  {ce3f3974-e8df-4dbe-b0ce-d1d514c23512}, !- Air Outlet Node Name
  {05485282-caea-4e1e-a3e2-6c6c222816c4}, !- Total Cooling Capacity Function of Temperature Curve Name
  {1708d079-5c6b-4372-96cc-93bcf32c3eec}, !- Total Cooling Capacity Function of Flow Fraction Curve Name
  {87edb689-5cb3-4d65-b54f-bafd45b2487d}, !- Energy Input Ratio Function of Temperature Curve Name
  {41c89fb6-1f89-4f02-9e29-36e0c7fed492}, !- Energy Input Ratio Function of Flow Fraction Curve Name
  {0ba7e3a1-2dc0-4797-a7e0-3634196ed180}, !- Part Load Fraction Correlation Curve Name
  Autosize,                               !- Rated Low Speed Total Cooling Capacity {W}
  0.69,                                   !- Rated Low Speed Sensible Heat Ratio
  6.6,                                    !- Rated Low Speed COP {W/W}
  ,                                       !- Rated Low Speed Air Flow Rate {m3/s}
  {46ef3afa-381c-450a-93ce-1cd6f6eb5e72}, !- Low Speed Total Cooling Capacity Function of Temperature Curve Name
  {3f030c33-77c6-479d-b4da-19a77feabdbc}, !- Low Speed Energy Input Ratio Function of Temperature Curve Name
  ,                                       !- Condenser Air Inlet Node Name
  AirCooled,                              !- Condenser Type
  0,                                      !- High Speed Evaporative Condenser Effectiveness {dimensionless}
  Autosize,                               !- High Speed Evaporative Condenser Air Flow Rate {m3/s}
  Autosize,                               !- High Speed Evaporative Condenser Pump Rated Power Consumption {W}
  0,                                      !- Low Speed Evaporative Condenser Effectiveness {dimensionless}
  Autosize,                               !- Low Speed Evaporative Condenser Air Flow Rate {m3/s}
  Autosize,                               !- Low Speed Evaporative Condenser Pump Rated Power Consumption {W}
  ,                                       !- Supply Water Storage Tank Name
  ,                                       !- Condensate Collection Water Storage Tank Name
  10,                                     !- Basin Heater Capacity {W/K}
  2,                                      !- Basin Heater Setpoint Temperature {C}
  ;                                       !- Basin Heater Operating Schedule Name

OS:SetpointManager:MixedAir,
  {28852ff8-77a3-4b27-8a09-122e44e57467}, !- Handle
  Setpoint Manager Mixed Air 1,           !- Name
  ,                                       !- Control Variable
  {1e99807d-0152-4a69-9be9-f6f6cfac06dd}, !- Reference Setpoint Node Name
  {fd85e722-0259-4654-8d80-647b0d4bdce8}, !- Fan Inlet Node Name
  {1e99807d-0152-4a69-9be9-f6f6cfac06dd}, !- Fan Outlet Node Name
  {fd85e722-0259-4654-8d80-647b0d4bdce8}; !- Setpoint Node or NodeList Name

OS:SetpointManager:MixedAir,
  {b95c3c77-54ec-42de-a528-ceafc4ea1fbd}, !- Handle
  Setpoint Manager Mixed Air 2,           !- Name
  ,                                       !- Control Variable
  {1e99807d-0152-4a69-9be9-f6f6cfac06dd}, !- Reference Setpoint Node Name
  {fd85e722-0259-4654-8d80-647b0d4bdce8}, !- Fan Inlet Node Name
  {1e99807d-0152-4a69-9be9-f6f6cfac06dd}, !- Fan Outlet Node Name
  {905938c6-90ba-4618-89fe-07b5aa925883}; !- Setpoint Node or NodeList Name

OS:SetpointManager:MixedAir,
  {b2d3978c-3551-4f63-b42b-250f5599deb7}, !- Handle
  Setpoint Manager Mixed Air 3,           !- Name
  ,                                       !- Control Variable
  {1e99807d-0152-4a69-9be9-f6f6cfac06dd}, !- Reference Setpoint Node Name
  {fd85e722-0259-4654-8d80-647b0d4bdce8}, !- Fan Inlet Node Name
  {1e99807d-0152-4a69-9be9-f6f6cfac06dd}, !- Fan Outlet Node Name
  {c6a9fdb2-aacb-4363-a002-cfc42805f2cf}; !- Setpoint Node or NodeList Name

OS:SetpointManager:Scheduled,
  {f5d21337-4d4d-446c-a76c-40533f90faeb}, !- Handle
  Setpoint Manager Scheduled 1,           !- Name
  Temperature,                            !- Control Variable
  {be04c987-7465-46de-afb5-24fc489c3e4b}, !- Schedule Name
  {1e99807d-0152-4a69-9be9-f6f6cfac06dd}; !- Setpoint Node or NodeList Name

OS:ScheduleTypeLimits,
  {e0f2d881-2c25-4691-9789-853371fc506c}, !- Handle
  Temperature,                            !- Name
  ,                                       !- Lower Limit Value {BasedOnField A4}
  ,                                       !- Upper Limit Value {BasedOnField A4}
  Continuous,                             !- Numeric Type
  Temperature;                            !- Unit Type

OS:Controller:OutdoorAir,
  {efc3e356-436f-46a5-a823-7a487596525d}, !- Handle
  Controller Outdoor Air 1,               !- Name
  ,                                       !- Relief Air Outlet Node Name
  ,                                       !- Return Air Node Name
  ,                                       !- Mixed Air Node Name
  ,                                       !- Actuator Node Name
  Autosize,                               !- Minimum Outdoor Air Flow Rate {m3/s}
  Autosize,                               !- Maximum Outdoor Air Flow Rate {m3/s}
  FixedDryBulb,                           !- Economizer Control Type
  ModulateFlow,                           !- Economizer Control Action Type
  30,                                     !- Economizer Maximum Limit Dry-Bulb Temperature {C}
  64000,                                  !- Economizer Maximum Limit Enthalpy {J/kg}
  ,                                       !- Economizer Maximum Limit Dewpoint Temperature {C}
  ,                                       !- Electronic Enthalpy Limit Curve Name
  -100,                                   !- Economizer Minimum Limit Dry-Bulb Temperature {C}
  NoLockout,                              !- Lockout Type
  FixedMinimum,                           !- Minimum Limit Type
  ,                                       !- Minimum Outdoor Air Schedule Name
  ,                                       !- Minimum Fraction of Outdoor Air Schedule Name
  ,                                       !- Maximum Fraction of Outdoor Air Schedule Name
  ,                                       !- Mechanical Ventilation Controller Name
  ,                                       !- Time of Day Economizer Control Schedule Name
  No,                                     !- High Humidity Control
  ,                                       !- Humidistat Control Zone Name
  ,                                       !- High Humidity Outdoor Air Flow Ratio
  ,                                       !- Control High Indoor Humidity Based on Outdoor Humidity Ratio
  BypassWhenOAFlowGreaterThanMinimum;     !- Heat Recovery Bypass Control Type

OS:AirLoopHVAC:OutdoorAirSystem,
  {3a40752d-79cf-4736-8138-2901b5f91904}, !- Handle
  Air Loop HVAC Outdoor Air System 1,     !- Name
  {efc3e356-436f-46a5-a823-7a487596525d}, !- Controller Name
  ,                                       !- Outdoor Air Equipment List Name
  ,                                       !- Availability Manager List Name
  {d5fd8027-6e7f-487b-9822-894c036928b1}, !- Mixed Air Node Name
  {3090bc66-d3f2-4dfd-a828-a8d9e2937a27}, !- Outdoor Air Stream Node Name
  {835eaf9c-b51a-43bf-b92b-9d63f01934d3}, !- Relief Air Stream Node Name
  {832f674a-78b9-4043-be25-894eed9ad6ed}; !- Return Air Stream Node Name

OS:Node,
  {33ab6a5a-ba68-4abc-8b32-5cd559fe1903}, !- Handle
  Node 6,                                 !- Name
  ,                                       !- Inlet Port
  {3090bc66-d3f2-4dfd-a828-a8d9e2937a27}; !- Outlet Port

OS:Connection,
  {3090bc66-d3f2-4dfd-a828-a8d9e2937a27}, !- Handle
  Connection 10,                          !- Name
  {33ab6a5a-ba68-4abc-8b32-5cd559fe1903}, !- Source Object
  3,                                      !- Outlet Port
  {3a40752d-79cf-4736-8138-2901b5f91904}, !- Target Object
  6;                                      !- Inlet Port

OS:Node,
  {b8951936-e796-4cbc-b917-cda9ebaa6cc4}, !- Handle
  Node 7,                                 !- Name
  {835eaf9c-b51a-43bf-b92b-9d63f01934d3}, !- Inlet Port
  ;                                       !- Outlet Port

OS:Connection,
  {835eaf9c-b51a-43bf-b92b-9d63f01934d3}, !- Handle
  Connection 11,                          !- Name
  {3a40752d-79cf-4736-8138-2901b5f91904}, !- Source Object
  7,                                      !- Outlet Port