
OS:Version,
  {8b440eb9-2702-464f-8bbc-7f62017ae686}, !- Handle
  0.10.0;                                 !- Version Identifier

OS:BuildingStory,
  {52c65259-c8fd-485e-8b29-99091bc587c0}, !- Handle
  Story 1,                                !- Name
  0,                                      !- Nominal Z Coordinate {m}
  4,                                      !- Nominal Floor to Floor Height {m}
  ,                                       !- Default Construction Set Name
  ,                                       !- Default Schedule Set Name
  ;                                       !- Group Rendering Name

OS:Space,
  {b422ad3d-3134-4583-be3b-5091d9b885ae}, !- Handle
  Story 1 West Perimeter Space,           !- Name
  ,                                       !- Space Type Name
  ,                                       !- Default Construction Set Name
  ,                                       !- Default Schedule Set Name
  -0,                                     !- Direction of Relative North {deg}
  0,                                      !- X Origin {m}
  0,                                      !- Y Origin {m}
  0,                                      !- Z Origin {m}
  {52c65259-c8fd-485e-8b29-99091bc587c0}, !- Building Story Name
  {648909a6-8ce5-4729-8899-8a10e1b099fe}; !- Thermal Zone Name

OS:Surface,
  {9d530191-69d5-49ec-8cee-de24cc84b38f}, !- Handle
  Surface 1,                              !- Name
  Floor,                                  !- Surface Type
  ,                                       !- Construction Name
  {b422ad3d-3134-4583-be3b-5091d9b885ae}, !- Space Name
  Ground,                                 !- Outside Boundary Condition
  ,                                       !- Outside Boundary Condition Object
  NoSun,                                  !- Sun Exposure
  NoWind,                                 !- Wind Exposure
  ,                                       !- View Factor to Ground
  ,                                       !- Number of Vertices
  0, 0, 0,                                !- X,Y,Z Vertex 1 {m}
  0, 22.3383079036887, 0,                 !- X,Y,Z Vertex 2 {m}
  3, 19.3383079036887, 0,                 !- X,Y,Z Vertex 3 {m}
  3, 3, 0;                                !- X,Y,Z Vertex 4 {m}

OS:Surface,
  {c27b2d79-fb49-4d47-832e-920f853aed2f}, !- Handle
  Surface 2,                              !- Name
  Wall,                                   !- Surface Type
  ,                                       !- Construction Name
  {b422ad3d-3134-4583-be3b-5091d9b885ae}, !- Space Name
  Outdoors,                               !- Outside Boundary Condition
  ,                                       !- Outside Boundary Condition Object
  SunExposed,                             !- Sun Exposure
  WindExposed,                            !- Wind Exposure
  ,                                       !- View Factor to Ground
  ,                                       !- Number of Vertices
  0, 22.3383079036887, 4,                 !- X,Y,Z Vertex 1 {m}
  0, 22.3383079036887, 0,                 !- X,Y,Z Vertex 2 {m}
  0, 0, 0,                                !- X,Y,Z Vertex 3 {m}
  0, 0, 4;                                !- X,Y,Z Vertex 4 {m}

OS:Surface,
  {4c34ad7d-daf6-423a-bbb7-d464773c143b}, !- Handle
  Surface 3,                              !- Name
  Wall,                                   !- Surface Type
  ,                                       !- Construction Name
  {b422ad3d-3134-4583-be3b-5091d9b885ae}, !- Space Name
  Surface,                                !- Outside Boundary Condition
  {f1572952-d0fc-4889-ae6c-7cea94dd1373}, !- Outside Boundary Condition Object
  NoSun,                                  !- Sun Exposure
  NoWind,                                 !- Wind Exposure
  ,                                       !- View Factor to Ground
  ,                                       !- Number of Vertices
  3, 19.3383079036887, 4,                 !- X,Y,Z Vertex 1 {m}
  3, 19.3383079036887, 0,                 !- X,Y,Z Vertex 2 {m}
  0, 22.3383079036887, 0,                 !- X,Y,Z Vertex 3 {m}
  0, 22.3383079036887, 4;                 !- X,Y,Z Vertex 4 {m}

OS:Surface,
  {93ad7bdf-0e79-4527-8fc6-9e11ce8d7131}, !- Handle
  Surface 4,                              !- Name
  Wall,                                   !- Surface Type
  ,                                       !- Construction Name
  {b422ad3d-3134-4583-be3b-5091d9b885ae}, !- Space Name
  Surface,                                !- Outside Boundary Condition
  {10af3453-c770-4cea-bb1d-0117b01d2b69}, !- Outside Boundary Condition Object
  NoSun,                                  !- Sun Exposure
  NoWind,                                 !- Wind Exposure
  ,                                       !- View Factor to Ground
  ,                                       !- Number of Vertices
  3, 3, 4,                                !- X,Y,Z Vertex 1 {m}
  3, 3, 0,                                !- X,Y,Z Vertex 2 {m}
  3, 19.3383079036887, 0,                 !- X,Y,Z Vertex 3 {m}
  3, 19.3383079036887, 4;                 !- X,Y,Z Vertex 4 {m}

OS:Surface,
  {5985389e-3363-4aa3-a38e-4b9134e79460}, !- Handle
  Surface 5,                              !- Name
  Wall,                                   !- Surface Type
  ,                                       !- Construction Name
  {b422ad3d-3134-4583-be3b-5091d9b885ae}, !- Space Name
  Surface,                                !- Outside Boundary Condition
  {1b047b36-d86a-4d18-b735-5e186162b76f}, !- Outside Boundary Condition Object
  NoSun,                                  !- Sun Exposure
  NoWind,                                 !- Wind Exposure
  ,                                       !- View Factor to Ground
  ,                                       !- Number of Vertices
  0, 0, 4,                                !- X,Y,Z Vertex 1 {m}
  0, 0, 0,                                !- X,Y,Z Vertex 2 {m}
  3, 3, 0,                                !- X,Y,Z Vertex 3 {m}
  3, 3, 4;                                !- X,Y,Z Vertex 4 {m}

OS:Surface,
  {c3b1ab8d-5588-4d7b-8ba2-a0d59973a206}, !- Handle
  Surface 6,                              !- Name
  RoofCeiling,                            !- Surface Type
  ,                                       !- Construction Name
  {b422ad3d-3134-4583-be3b-5091d9b885ae}, !- Space Name
  Outdoors,                               !- Outside Boundary Condition
  ,                                       !- Outside Boundary Condition Object
  SunExposed,                             !- Sun Exposure
  WindExposed,                            !- Wind Exposure
  ,                                       !- View Factor to Ground
  ,                                       !- Number of Vertices
  3, 3, 4,                                !- X,Y,Z Vertex 1 {m}
  3, 19.3383079036887, 4,                 !- X,Y,Z Vertex 2 {m}
  0, 22.3383079036887, 4,                 !- X,Y,Z Vertex 3 {m}
  0, 0, 4;                                !- X,Y,Z Vertex 4 {m}

OS:Space,
  {38cf91ff-bf81-4359-abb8-6a3ac8da7944}, !- Handle
  Story 1 North Perimeter Space,          !- Name
  ,                                       !- Space Type Name
  ,                                       !- Default Construction Set Name
  ,                                       !- Default Schedule Set Name
  -0,                                     !- Direction of Relative North {deg}
  3,                                      !- X Origin {m}
  19.3383079036887,                       !- Y Origin {m}
  0,                                      !- Z Origin {m}
  {52c65259-c8fd-485e-8b29-99091bc587c0}, !- Building Story Name
  {eeb7e173-c993-462e-981d-867dd26e05b1}; !- Thermal Zone Name

OS:Surface,
  {faae54fe-0880-4bfe-a819-716b5abd0122}, !- Handle
  Surface 7,                              !- Name
  Floor,                                  !- Surface Type
  ,                                       !- Construction Name
  {38cf91ff-bf81-4359-abb8-6a3ac8da7944}, !- Space Name
  Ground,                                 !- Outside Boundary Condition
  ,                                       !- Outside Boundary Condition Object
  NoSun,                                  !- Sun Exposure
  NoWind,                                 !- Wind Exposure
  ,                                       !- View Factor to Ground
  ,                                       !- Number of Vertices
  -3, 3.00000000000002, 0,                !- X,Y,Z Vertex 1 {m}
  19.3383079036887, 3.00000000000002, 0,  !- X,Y,Z Vertex 2 {m}
  16.3383079036887, 2.48689957516035e-14, 0, !- X,Y,Z Vertex 3 {m}
  0, 2.48689957516035e-14, 0;             !- X,Y,Z Vertex 4 {m}

OS:Surface,
  {2e5c3f78-ca7b-458b-b959-a337f3ced2e6}, !- Handle
  Surface 8,                              !- Name
  Wall,                                   !- Surface Type
  ,                                       !- Construction Name
  {38cf91ff-bf81-4359-abb8-6a3ac8da7944}, !- Space Name
  Outdoors,                               !- Outside Boundary Condition
  ,                                       !- Outside Boundary Condition Object
  SunExposed,                             !- Sun Exposure
  WindExposed,                            !- Wind Exposure
  ,                                       !- View Factor to Ground
  ,                                       !- Number of Vertices
  19.3383079036887, 3.00000000000002, 4,  !- X,Y,Z Vertex 1 {m}
  19.3383079036887, 3.00000000000002, 0,  !- X,Y,Z Vertex 2 {m}
  -3, 3.00000000000002, 0,                !- X,Y,Z Vertex 3 {m}
  -3, 3.00000000000002, 4;                !- X,Y,Z Vertex 4 {m}

OS:Surface,
  {58d86782-de5b-4e33-ae2b-7d89faafcfe9}, !- Handle
  Surface 9,                              !- Name
  Wall,                                   !- Surface Type
  ,                                       !- Construction Name
  {38cf91ff-bf81-4359-abb8-6a3ac8da7944}, !- Space Name
  Surface,                                !- Outside Boundary Condition
  {65b656a1-13e8-4189-ac51-493353cad4db}, !- Outside Boundary Condition Object
  NoSun,                                  !- Sun Exposure
  NoWind,                                 !- Wind Exposure
  ,                                       !- View Factor to Ground
  ,                                       !- Number of Vertices
  16.3383079036887, 2.48689957516035e-14, 4, !- X,Y,Z Vertex 1 {m}
  16.3383079036887, 2.48689957516035e-14, 0, !- X,Y,Z Vertex 2 {m}
  19.3383079036887, 3.00000000000002, 0,  !- X,Y,Z Vertex 3 {m}
  19.3383079036887, 3.00000000000002, 4;  !- X,Y,Z Vertex 4 {m}

OS:Surface,
  {06bd8a67-e2b2-45c2-8bcc-d60839043521}, !- Handle
  Surface 10,                             !- Name
  Wall,                                   !- Surface Type
  ,                                       !- Construction Name
  {38cf91ff-bf81-4359-abb8-6a3ac8da7944}, !- Space Name
  Surface,                                !- Outside Boundary Condition
  {d468003c-3532-4dda-95a1-a4a4759abc09}, !- Outside Boundary Condition Object
  NoSun,                                  !- Sun Exposure
  NoWind,                                 !- Wind Exposure
  ,                                       !- View Factor to Ground
  ,                                       !- Number of Vertices
  0, 2.48689957516035e-14, 4,             !- X,Y,Z Vertex 1 {m}
  0, 2.48689957516035e-14, 0,             !- X,Y,Z Vertex 2 {m}
  16.3383079036887, 2.48689957516035e-14, 0, !- X,Y,Z Vertex 3 {m}
  16.3383079036887, 2.48689957516035e-14, 4; !- X,Y,Z Vertex 4 {m}

OS:Surface,
  {f1572952-d0fc-4889-ae6c-7cea94dd1373}, !- Handle
  Surface 11,                             !- Name
  Wall,                                   !- Surface Type
  ,                                       !- Construction Name
  {38cf91ff-bf81-4359-abb8-6a3ac8da7944}, !- Space Name
  Surface,                                !- Outside Boundary Condition
  {4c34ad7d-daf6-423a-bbb7-d464773c143b}, !- Outside Boundary Condition Object
  NoSun,                                  !- Sun Exposure
  NoWind,                                 !- Wind Exposure
  ,                                       !- View Factor to Ground
  ,                                       !- Number of Vertices
  -3, 3.00000000000002, 4,                !- X,Y,Z Vertex 1 {m}
  -3, 3.00000000000002, 0,                !- X,Y,Z Vertex 2 {m}
  0, 2.48689957516035e-14, 0,             !- X,Y,Z Vertex 3 {m}
  0, 2.48689957516035e-14, 4;             !- X,Y,Z Vertex 4 {m}

OS:Surface,
  {48882f7f-610d-4405-b7c4-4666149648c2}, !- Handle
  Surface 12,                             !- Name
  RoofCeiling,                            !- Surface Type
  ,                                       !- Construction Name
  {38cf91ff-bf81-4359-abb8-6a3ac8da7944}, !- Space Name
  Outdoors,                               !- Outside Boundary Condition
  ,                                       !- Outside Boundary Condition Object
  SunExposed,                             !- Sun Exposure
  WindExposed,                            !- Wind Exposure
  ,                                       !- View Factor to Ground
  ,                                       !- Number of Vertices
  0, 2.48689957516035e-14, 4,             !- X,Y,Z Vertex 1 {m}
  16.3383079036887, 2.48689957516035e-14, 4, !- X,Y,Z Vertex 2 {m}
  19.3383079036887, 3.00000000000002, 4,  !- X,Y,Z Vertex 3 {m}
  -3, 3.00000000000002, 4;                !- X,Y,Z Vertex 4 {m}

OS:Space,
  {f4d28171-bae5-4d0b-b20d-28558f7965f0}, !- Handle
  Story 1 East Perimeter Space,           !- Name
  ,                                       !- Space Type Name
  ,                                       !- Default Construction Set Name
  ,                                       !- Default Schedule Set Name
  -0,                                     !- Direction of Relative North {deg}
  19.3383079036887,                       !- X Origin {m}
  3,                                      !- Y Origin {m}
  0,                                      !- Z Origin {m}
  {52c65259-c8fd-485e-8b29-99091bc587c0}, !- Building Story Name
  {ba1a2255-07c5-4750-bf2b-9b92a9e3dbfb}; !- Thermal Zone Name

OS:Surface,
  {b5a7ea3e-1ead-47d0-ad63-8a000c1bb62e}, !- Handle
  Surface 13,                             !- Name
  Floor,                                  !- Surface Type
  ,                                       !- Construction Name
  {f4d28171-bae5-4d0b-b20d-28558f7965f0}, !- Space Name
  Ground,                                 !- Outside Boundary Condition
  ,                                       !- Outside Boundary Condition Object
  NoSun,                                  !- Sun Exposure
  NoWind,                                 !- Wind Exposure
  ,                                       !- View Factor to Ground
  ,                                       !- Number of Vertices
  3.00000000000002, 19.3383079036887, 0,  !- X,Y,Z Vertex 1 {m}
  3.00000000000002, -3, 0,                !- X,Y,Z Vertex 2 {m}
  2.48689957516035e-14, 0, 0,             !- X,Y,Z Vertex 3 {m}
  2.48689957516035e-14, 16.3383079036887, 0; !- X,Y,Z Vertex 4 {m}

OS:Surface,
  {5dfee74c-9357-469f-9c57-fc206fbf6981}, !- Handle
  Surface 14,                             !- Name
  Wall,                                   !- Surface Type
  ,                                       !- Construction Name
  {f4d28171-bae5-4d0b-b20d-28558f7965f0}, !- Space Name
  Outdoors,                               !- Outside Boundary Condition
  ,                                       !- Outside Boundary Condition Object
  SunExposed,                             !- Sun Exposure
  WindExposed,                            !- Wind Exposure
  ,                                       !- View Factor to Ground
  ,                                       !- Number of Vertices
  3.00000000000002, -3, 4,                !- X,Y,Z Vertex 1 {m}
  3.00000000000002, -3, 0,                !- X,Y,Z Vertex 2 {m}
  3.00000000000002, 19.3383079036887, 0,  !- X,Y,Z Vertex 3 {m}
  3.00000000000002, 19.3383079036887, 4;  !- X,Y,Z Vertex 4 {m}

OS:Surface,
  {2e782db3-4fbe-4145-a5a1-d0d12adf05b1}, !- Handle
  Surface 15,                             !- Name
  Wall,                                   !- Surface Type
  ,                                       !- Construction Name
  {f4d28171-bae5-4d0b-b20d-28558f7965f0}, !- Space Name
  Surface,                                !- Outside Boundary Condition
  {ec92b010-c40c-4b4e-9bec-ae434ba41927}, !- Outside Boundary Condition Object
  NoSun,                                  !- Sun Exposure
  NoWind,                                 !- Wind Exposure
  ,                                       !- View Factor to Ground
  ,                                       !- Number of Vertices
  2.48689957516035e-14, 0, 4,             !- X,Y,Z Vertex 1 {m}
  2.48689957516035e-14, 0, 0,             !- X,Y,Z Vertex 2 {m}
  3.00000000000002, -3, 0,                !- X,Y,Z Vertex 3 {m}
  3.00000000000002, -3, 4;                !- X,Y,Z Vertex 4 {m}

OS:Surface,
  {e3f7c8c1-cf6a-47ea-9469-dc9e85ffcec7}, !- Handle
  Surface 16,                             !- Name
  Wall,                                   !- Surface Type
  ,                                       !- Construction Name
  {f4d28171-bae5-4d0b-b20d-28558f7965f0}, !- Space Name
  Surface,                                !- Outside Boundary Condition
  {f8a80ca1-47be-4688-9f37-eab2ae63e398}, !- Outside Boundary Condition Object
  NoSun,                                  !- Sun Exposure
  NoWind,                                 !- Wind Exposure
  ,                                       !- View Factor to Ground
  ,                                       !- Number of Vertices
  2.48689957516035e-14, 16.3383079036887, 4, !- X,Y,Z Vertex 1 {m}
  2.48689957516035e-14, 16.3383079036887, 0, !- X,Y,Z Vertex 2 {m}
  2.48689957516035e-14, 0, 0,             !- X,Y,Z Vertex 3 {m}
  2.48689957516035e-14, 0, 4;             !- X,Y,Z Vertex 4 {m}

OS:Surface,
  {65b656a1-13e8-4189-ac51-493353cad4db}, !- Handle
  Surface 17,                             !- Name
  Wall,                                   !- Surface Type
  ,                                       !- Construction Name
  {f4d28171-bae5-4d0b-b20d-28558f7965f0}, !- Space Name
  Surface,                                !- Outside Boundary Condition
  {58d86782-de5b-4e33-ae2b-7d89faafcfe9}, !- Outside Boundary Condition Object
  NoSun,                                  !- Sun Exposure
  NoWind,                                 !- Wind Exposure
  ,                                       !- View Factor to Ground
  ,                                       !- Number of Vertices
  3.00000000000002, 19.3383079036887, 4,  !- X,Y,Z Vertex 1 {m}
  3.00000000000002, 19.3383079036887, 0,  !- X,Y,Z Vertex 2 {m}
  2.48689957516035e-14, 16.3383079036887, 0, !- X,Y,Z Vertex 3 {m}
  2.48689957516035e-14, 16.3383079036887, 4; !- X,Y,Z Vertex 4 {m}

OS:Surface,
  {ae255fee-3571-4f25-9dad-2c50f1d50003}, !- Handle
  Surface 18,                             !- Name
  RoofCeiling,                            !- Surface Type
  ,                                       !- Construction Name
  {f4d28171-bae5-4d0b-b20d-28558f7965f0}, !- Space Name
  Outdoors,                               !- Outside Boundary Condition
  ,                                       !- Outside Boundary Condition Object
  SunExposed,                             !- Sun Exposure
  WindExposed,                            !- Wind Exposure
  ,                                       !- View Factor to Ground
  ,                                       !- Number of Vertices
  2.48689957516035e-14, 16.3383079036887, 4, !- X,Y,Z Vertex 1 {m}
  2.48689957516035e-14, 0, 4,             !- X,Y,Z Vertex 2 {m}
  3.00000000000002, -3, 4,                !- X,Y,Z Vertex 3 {m}
  3.00000000000002, 19.3383079036887, 4;  !- X,Y,Z Vertex 4 {m}

OS:Space,
  {c9ad981b-c777-4fa4-a9f1-a592a7d836fc}, !- Handle
  Story 1 South Perimeter Space,          !- Name
  ,                                       !- Space Type Name
  ,                                       !- Default Construction Set Name
  ,                                       !- Default Schedule Set Name
  -0,                                     !- Direction of Relative North {deg}
  0,                                      !- X Origin {m}
  0,                                      !- Y Origin {m}
  0,                                      !- Z Origin {m}
  {52c65259-c8fd-485e-8b29-99091bc587c0}, !- Building Story Name
  {fd53c29a-0c45-404a-a90d-b9dbd315aabc}; !- Thermal Zone Name

OS:Surface,
  {32202569-2919-438b-a058-d4fcd35f11c8}, !- Handle
  Surface 19,                             !- Name
  Floor,                                  !- Surface Type
  ,                                       !- Construction Name
  {c9ad981b-c777-4fa4-a9f1-a592a7d836fc}, !- Space Name
  Ground,                                 !- Outside Boundary Condition
  ,                                       !- Outside Boundary Condition Object
  NoSun,                                  !- Sun Exposure
  NoWind,                                 !- Wind Exposure
  ,                                       !- View Factor to Ground
  ,                                       !- Number of Vertices
  22.3383079036887, 0, 0,                 !- X,Y,Z Vertex 1 {m}
  0, 0, 0,                                !- X,Y,Z Vertex 2 {m}
  3, 3, 0,                                !- X,Y,Z Vertex 3 {m}
  19.3383079036887, 3, 0;                 !- X,Y,Z Vertex 4 {m}

OS:Surface,
  {9def748b-4022-420c-bb30-9e46d7b73481}, !- Handle
  Surface 20,                             !- Name
  Wall,                                   !- Surface Type
  ,                                       !- Construction Name
  {c9ad981b-c777-4fa4-a9f1-a592a7d836fc}, !- Space Name
  Outdoors,                               !- Outside Boundary Condition
  ,                                       !- Outside Boundary Condition Object
  SunExposed,                             !- Sun Exposure
  WindExposed,                            !- Wind Exposure
  ,                                       !- View Factor to Ground
  ,                                       !- Number of Vertices
  0, 0, 4,                                !- X,Y,Z Vertex 1 {m}
  0, 0, 0,                                !- X,Y,Z Vertex 2 {m}
  22.3383079036887, 0, 0,                 !- X,Y,Z Vertex 3 {m}
  22.3383079036887, 0, 4;                 !- X,Y,Z Vertex 4 {m}

OS:Surface,
  {1b047b36-d86a-4d18-b735-5e186162b76f}, !- Handle
  Surface 21,                             !- Name
  Wall,                                   !- Surface Type
  ,                                       !- Construction Name
  {c9ad981b-c777-4fa4-a9f1-a592a7d836fc}, !- Space Name
  Surface,                                !- Outside Boundary Condition
  {5985389e-3363-4aa3-a38e-4b9134e79460}, !- Outside Boundary Condition Object
  NoSun,                                  !- Sun Exposure
  NoWind,                                 !- Wind Exposure
  ,                                       !- View Factor to Ground
  ,                                       !- Number of Vertices
  3, 3, 4,                                !- X,Y,Z Vertex 1 {m}
  3, 3, 0,                                !- X,Y,Z Vertex 2 {m}
  0, 0, 0,                                !- X,Y,Z Vertex 3 {m}
  0, 0, 4;                                !- X,Y,Z Vertex 4 {m}

OS:Surface,
  {1474e590-3330-46fc-8203-1655fce71a73}, !- Handle
  Surface 22,                             !- Name
  Wall,                                   !- Surface Type
  ,                                       !- Construction Name
  {c9ad981b-c777-4fa4-a9f1-a592a7d836fc}, !- Space Name
  Surface,                                !- Outside Boundary Condition
  {7f1fa96f-b971-4ca8-a84f-aec65af44824}, !- Outside Boundary Condition Object
  NoSun,                                  !- Sun Exposure
  NoWind,                                 !- Wind Exposure
  ,                                       !- View Factor to Ground
  ,                                       !- Number of Vertices
  19.3383079036887, 3, 4,                 !- X,Y,Z Vertex 1 {m}
  19.3383079036887, 3, 0,                 !- X,Y,Z Vertex 2 {m}
  3, 3, 0,                                !- X,Y,Z Vertex 3 {m}
  3, 3, 4;                                !- X,Y,Z Vertex 4 {m}

OS:Surface,
  {ec92b010-c40c-4b4e-9bec-ae434ba41927}, !- Handle
  Surface 23,                             !- Name
  Wall,                                   !- Surface Type
  ,                                       !- Construction Name
  {c9ad981b-c777-4fa4-a9f1-a592a7d836fc}, !- Space Name
  Surface,                                !- Outside Boundary Condition
  {2e782db3-4fbe-4145-a5a1-d0d12adf05b1}, !- Outside Boundary Condition Object
  NoSun,                                  !- Sun Exposure
  NoWind,                                 !- Wind Exposure
  ,                                       !- View Factor to Ground
  ,                                       !- Number of Vertices
  22.3383079036887, 0, 4,                 !- X,Y,Z Vertex 1 {m}
  22.3383079036887, 0, 0,                 !- X,Y,Z Vertex 2 {m}
  19.3383079036887, 3, 0,                 !- X,Y,Z Vertex 3 {m}
  19.3383079036887, 3, 4;                 !- X,Y,Z Vertex 4 {m}

OS:Surface,
  {6b6c3c9e-ae7b-47d8-b314-65ab9ad65da6}, !- Handle
  Surface 24,                             !- Name
  RoofCeiling,                            !- Surface Type
  ,                                       !- Construction Name
  {c9ad981b-c777-4fa4-a9f1-a592a7d836fc}, !- Space Name
  Outdoors,                               !- Outside Boundary Condition
  ,                                       !- Outside Boundary Condition Object
  SunExposed,                             !- Sun Exposure
  WindExposed,                            !- Wind Exposure
  ,                                       !- View Factor to Ground
  ,                                       !- Number of Vertices
  19.3383079036887, 3, 4,                 !- X,Y,Z Vertex 1 {m}
  3, 3, 4,                                !- X,Y,Z Vertex 2 {m}
  0, 0, 4,                                !- X,Y,Z Vertex 3 {m}
  22.3383079036887, 0, 4;                 !- X,Y,Z Vertex 4 {m}

OS:Space,
  {f9c0877d-8bf4-4673-a3aa-fc348108f9cf}, !- Handle
  Story 1 Core Space,                     !- Name
  ,                                       !- Space Type Name
  ,                                       !- Default Construction Set Name
  ,                                       !- Default Schedule Set Name
  -0,                                     !- Direction of Relative North {deg}
  3,                                      !- X Origin {m}
  3,                                      !- Y Origin {m}
  0,                                      !- Z Origin {m}
  {52c65259-c8fd-485e-8b29-99091bc587c0}, !- Building Story Name
  {edde2a3f-c968-42a7-995c-9488d0e5caaa}; !- Thermal Zone Name

OS:Surface,
  {6e8f49a2-9e88-4204-8381-db908d924f7e}, !- Handle
  Surface 25,                             !- Name
  Floor,                                  !- Surface Type
  ,                                       !- Construction Name
  {f9c0877d-8bf4-4673-a3aa-fc348108f9cf}, !- Space Name
  Ground,                                 !- Outside Boundary Condition
  ,                                       !- Outside Boundary Condition Object
  NoSun,                                  !- Sun Exposure
  NoWind,                                 !- Wind Exposure
  ,                                       !- View Factor to Ground
  ,                                       !- Number of Vertices
  0, 0, 0,                                !- X,Y,Z Vertex 1 {m}
  0, 16.3383079036887, 0,                 !- X,Y,Z Vertex 2 {m}
  16.3383079036887, 16.3383079036887, 0,  !- X,Y,Z Vertex 3 {m}
  16.3383079036887, 0, 0;                 !- X,Y,Z Vertex 4 {m}

OS:Surface,
  {10af3453-c770-4cea-bb1d-0117b01d2b69}, !- Handle
  Surface 26,                             !- Name
  Wall,                                   !- Surface Type
  ,                                       !- Construction Name
  {f9c0877d-8bf4-4673-a3aa-fc348108f9cf}, !- Space Name
  Surface,                                !- Outside Boundary Condition
  {93ad7bdf-0e79-4527-8fc6-9e11ce8d7131}, !- Outside Boundary Condition Object
  NoSun,                                  !- Sun Exposure
  NoWind,                                 !- Wind Exposure
  ,                                       !- View Factor to Ground
  ,                                       !- Number of Vertices
  0, 16.3383079036887, 4,                 !- X,Y,Z Vertex 1 {m}
  0, 16.3383079036887, 0,                 !- X,Y,Z Vertex 2 {m}
  0, 0, 0,                                !- X,Y,Z Vertex 3 {m}
  0, 0, 4;                                !- X,Y,Z Vertex 4 {m}

OS:Surface,
  {d468003c-3532-4dda-95a1-a4a4759abc09}, !- Handle
  Surface 27,                             !- Name
  Wall,                                   !- Surface Type
  ,                                       !- Construction Name
  {f9c0877d-8bf4-4673-a3aa-fc348108f9cf}, !- Space Name
  Surface,                                !- Outside Boundary Condition
  {06bd8a67-e2b2-45c2-8bcc-d60839043521}, !- Outside Boundary Condition Object
  NoSun,                                  !- Sun Exposure
  NoWind,                                 !- Wind Exposure
  ,                                       !- View Factor to Ground
  ,                                       !- Number of Vertices
  16.3383079036887, 16.3383079036887, 4,  !- X,Y,Z Vertex 1 {m}
  16.3383079036887, 16.3383079036887, 0,  !- X,Y,Z Vertex 2 {m}
  0, 16.3383079036887, 0,                 !- X,Y,Z Vertex 3 {m}
  0, 16.3383079036887, 4;                 !- X,Y,Z Vertex 4 {m}

OS:Surface,
  {f8a80ca1-47be-4688-9f37-eab2ae63e398}, !- Handle
  Surface 28,                             !- Name
  Wall,                                   !- Surface Type
  ,                                       !- Construction Name