
OS:Version,
  {7606ccc8-4c0b-4594-9011-0ab2958a257e}, !- Handle
  0.10.0;                                 !- Version Identifier

OS:BuildingStory,
  {a7753ffe-18c5-40e9-a643-b0b0651fbbbc}, !- Handle
  Story 1,                                !- Name
  0,                                      !- Nominal Z Coordinate {m}
  4,                                      !- Nominal Floor to Floor Height {m}
  ,                                       !- Default Construction Set Name
  ,                                       !- Default Schedule Set Name
  ;                                       !- Group Rendering Name

OS:Space,
  {45b5da8b-5ff9-4987-883e-c608e0f9ea28}, !- Handle
  Story 1 West Perimeter Space,           !- Name
  ,                                       !- Space Type Name
  ,                                       !- Default Construction Set Name
  ,                                       !- Default Schedule Set Name
  -0,                                     !- Direction of Relative North {deg}
  0,                                      !- X Origin {m}
  0,                                      !- Y Origin {m}
  0,                                      !- Z Origin {m}
  {a7753ffe-18c5-40e9-a643-b0b0651fbbbc}, !- Building Story Name
  {e78cdd53-a63d-4243-bf64-5dd6a484bead}; !- Thermal Zone Name

OS:Surface,
  {b6e15cf3-a9d5-4d6e-a0b8-fbd9fcaabf79}, !- Handle
  Surface 1,                              !- Name
  Floor,                                  !- Surface Type
  ,                                       !- Construction Name
  {45b5da8b-5ff9-4987-883e-c608e0f9ea28}, !- Space Name
  Ground,                                 !- Outside Boundary Condition
  ,                                       !- Outside Boundary Condition Object
  NoSun,                                  !- Sun Exposure
  NoWind,                                 !- Wind Exposure
  ,                                       !- View Factor to Ground
  ,                                       !- Number of Vertices
  0, 0, 0,                                !- X,Y,Z Vertex 1 {m}
  0, 28.2807354925575, 0,                 !- X,Y,Z Vertex 2 {m}
  3, 25.2807354925575, 0,                 !- X,Y,Z Vertex 3 {m}
  3, 3, 0;                                !- X,Y,Z Vertex 4 {m}

OS:Surface,
  {00a93600-bdd2-4741-a215-3f722c363c84}, !- Handle
  Surface 2,                              !- Name
  Wall,                                   !- Surface Type
  ,                                       !- Construction Name
  {45b5da8b-5ff9-4987-883e-c608e0f9ea28}, !- Space Name
  Outdoors,                               !- Outside Boundary Condition
  ,                                       !- Outside Boundary Condition Object
  SunExposed,                             !- Sun Exposure
  WindExposed,                            !- Wind Exposure
  ,                                       !- View Factor to Ground
  ,                                       !- Number of Vertices
  0, 28.2807354925575, 4,                 !- X,Y,Z Vertex 1 {m}
  0, 28.2807354925575, 0,                 !- X,Y,Z Vertex 2 {m}
  0, 0, 0,                                !- X,Y,Z Vertex 3 {m}
  0, 0, 4;                                !- X,Y,Z Vertex 4 {m}

OS:Surface,
  {5baac231-9d82-4d75-be8f-7e58a254caeb}, !- Handle
  Surface 3,                              !- Name
  Wall,                                   !- Surface Type
  ,                                       !- Construction Name
  {45b5da8b-5ff9-4987-883e-c608e0f9ea28}, !- Space Name
  Surface,                                !- Outside Boundary Condition
  {d59fe9b8-5f6d-4454-9271-fa81ba8a2d6c}, !- Outside Boundary Condition Object
  NoSun,                                  !- Sun Exposure
  NoWind,                                 !- Wind Exposure
  ,                                       !- View Factor to Ground
  ,                                       !- Number of Vertices
  3, 25.2807354925575, 4,                 !- X,Y,Z Vertex 1 {m}
  3, 25.2807354925575, 0,                 !- X,Y,Z Vertex 2 {m}
  0, 28.2807354925575, 0,                 !- X,Y,Z Vertex 3 {m}
  0, 28.2807354925575, 4;                 !- X,Y,Z Vertex 4 {m}

OS:Surface,
  {2d927173-3cdf-4929-8221-215bd55d703e}, !- Handle
  Surface 4,                              !- Name
  Wall,                                   !- Surface Type
  ,                                       !- Construction Name
  {45b5da8b-5ff9-4987-883e-c608e0f9ea28}, !- Space Name
  Surface,                                !- Outside Boundary Condition
  {b706f3d0-8681-4258-aedb-18097b75a2de}, !- Outside Boundary Condition Object
  NoSun,                                  !- Sun Exposure
  NoWind,                                 !- Wind Exposure
  ,                                       !- View Factor to Ground
  ,                                       !- Number of Vertices
  3, 3, 4,                                !- X,Y,Z Vertex 1 {m}
  3, 3, 0,                                !- X,Y,Z Vertex 2 {m}
  3, 25.2807354925575, 0,                 !- X,Y,Z Vertex 3 {m}
  3, 25.2807354925575, 4;                 !- X,Y,Z Vertex 4 {m}

OS:Surface,
  {c0cd83a3-d5c7-449b-ac61-17841c1dc18d}, !- Handle
  Surface 5,                              !- Name
  Wall,                                   !- Surface Type
  ,                                       !- Construction Name
  {45b5da8b-5ff9-4987-883e-c608e0f9ea28}, !- Space Name
  Surface,                                !- Outside Boundary Condition
  {aa1e1095-d70a-4564-9756-dd063a1ce5a9}, !- Outside Boundary Condition Object
  NoSun,                                  !- Sun Exposure
  NoWind,                                 !- Wind Exposure
  ,                                       !- View Factor to Ground
  ,                                       !- Number of Vertices
  0, 0, 4,                                !- X,Y,Z Vertex 1 {m}
  0, 0, 0,                                !- X,Y,Z Vertex 2 {m}
  3, 3, 0,                                !- X,Y,Z Vertex 3 {m}
  3, 3, 4;                                !- X,Y,Z Vertex 4 {m}

OS:Surface,
  {0364693e-3a5f-4878-9908-f259f82ec83c}, !- Handle
  Surface 6,                              !- Name
  RoofCeiling,                            !- Surface Type
  ,                                       !- Construction Name
  {45b5da8b-5ff9-4987-883e-c608e0f9ea28}, !- Space Name
  Surface,                                !- Outside Boundary Condition
  {825a1ea4-f32d-49df-89be-05e219a75326}, !- Outside Boundary Condition Object
  NoSun,                                  !- Sun Exposure
  NoWind,                                 !- Wind Exposure
  ,                                       !- View Factor to Ground
  ,                                       !- Number of Vertices
  3, 3, 4,                                !- X,Y,Z Vertex 1 {m}
  3, 25.2807354925575, 4,                 !- X,Y,Z Vertex 2 {m}
  0, 28.2807354925575, 4,                 !- X,Y,Z Vertex 3 {m}
  0, 0, 4;                                !- X,Y,Z Vertex 4 {m}

OS:Space,
  {a715b63e-ff7e-4c3b-ae72-040a283461a0}, !- Handle
  Story 1 North Perimeter Space,          !- Name
  ,                                       !- Space Type Name
  ,                                       !- Default Construction Set Name
  ,                                       !- Default Schedule Set Name
  -0,                                     !- Direction of Relative North {deg}
  3,                                      !- X Origin {m}
  25.2807354925575,                       !- Y Origin {m}
  0,                                      !- Z Origin {m}
  {a7753ffe-18c5-40e9-a643-b0b0651fbbbc}, !- Building Story Name
  {00a6340a-29e7-4ef8-bb68-b538c3017945}; !- Thermal Zone Name

OS:Surface,
  {504af2cc-570a-4e25-9341-7b9ee9a2dea8}, !- Handle
  Surface 7,                              !- Name
  Floor,                                  !- Surface Type
  ,                                       !- Construction Name
  {a715b63e-ff7e-4c3b-ae72-040a283461a0}, !- Space Name
  Ground,                                 !- Outside Boundary Condition
  ,                                       !- Outside Boundary Condition Object
  NoSun,                                  !- Sun Exposure
  NoWind,                                 !- Wind Exposure
  ,                                       !- View Factor to Ground
  ,                                       !- Number of Vertices
  -3, 3.00000000000003, 0,                !- X,Y,Z Vertex 1 {m}
  25.2807354925575, 3.00000000000003, 0,  !- X,Y,Z Vertex 2 {m}
  22.2807354925575, 2.8421709430404e-14, 0, !- X,Y,Z Vertex 3 {m}
  0, 2.8421709430404e-14, 0;              !- X,Y,Z Vertex 4 {m}

OS:Surface,
  {c7ed0f10-fe8e-43b8-aec8-ec62f8322d40}, !- Handle
  Surface 8,                              !- Name
  Wall,                                   !- Surface Type
  ,                                       !- Construction Name
  {a715b63e-ff7e-4c3b-ae72-040a283461a0}, !- Space Name
  Outdoors,                               !- Outside Boundary Condition
  ,                                       !- Outside Boundary Condition Object
  SunExposed,                             !- Sun Exposure
  WindExposed,                            !- Wind Exposure
  ,                                       !- View Factor to Ground
  ,                                       !- Number of Vertices
  25.2807354925575, 3.00000000000003, 4,  !- X,Y,Z Vertex 1 {m}
  25.2807354925575, 3.00000000000003, 0,  !- X,Y,Z Vertex 2 {m}
  -3, 3.00000000000003, 0,                !- X,Y,Z Vertex 3 {m}
  -3, 3.00000000000003, 4;                !- X,Y,Z Vertex 4 {m}

OS:Surface,
  {9d695a8a-1638-4382-9bb8-0fcaa29abf9b}, !- Handle
  Surface 9,                              !- Name
  Wall,                                   !- Surface Type
  ,                                       !- Construction Name
  {a715b63e-ff7e-4c3b-ae72-040a283461a0}, !- Space Name
  Surface,                                !- Outside Boundary Condition
  {3a1cd73a-9f0d-479d-94c3-8bc861df99f0}, !- Outside Boundary Condition Object
  NoSun,                                  !- Sun Exposure
  NoWind,                                 !- Wind Exposure
  ,                                       !- View Factor to Ground
  ,                                       !- Number of Vertices
  22.2807354925575, 2.8421709430404e-14, 4, !- X,Y,Z Vertex 1 {m}
  22.2807354925575, 2.8421709430404e-14, 0, !- X,Y,Z Vertex 2 {m}
  25.2807354925575, 3.00000000000003, 0,  !- X,Y,Z Vertex 3 {m}
  25.2807354925575, 3.00000000000003, 4;  !- X,Y,Z Vertex 4 {m}

OS:Surface,
  {b6a2849d-bb68-4d78-abf2-473db2f306b3}, !- Handle
  Surface 10,                             !- Name
  Wall,                                   !- Surface Type
  ,                                       !- Construction Name
  {a715b63e-ff7e-4c3b-ae72-040a283461a0}, !- Space Name
  Surface,                                !- Outside Boundary Condition
  {8324cefd-309b-4b01-bc95-53ac233ac49a}, !- Outside Boundary Condition Object
  NoSun,                                  !- Sun Exposure
  NoWind,                                 !- Wind Exposure
  ,                                       !- View Factor to Ground
  ,                                       !- Number of Vertices
  0, 2.8421709430404e-14, 4,              !- X,Y,Z Vertex 1 {m}
  0, 2.8421709430404e-14, 0,              !- X,Y,Z Vertex 2 {m}
  22.2807354925575, 2.8421709430404e-14, 0, !- X,Y,Z Vertex 3 {m}
  22.2807354925575, 2.8421709430404e-14, 4; !- X,Y,Z Vertex 4 {m}

OS:Surface,
  {d59fe9b8-5f6d-4454-9271-fa81ba8a2d6c}, !- Handle
  Surface 11,                             !- Name
  Wall,                                   !- Surface Type
  ,                                       !- Construction Name
  {a715b63e-ff7e-4c3b-ae72-040a283461a0}, !- Space Name
  Surface,                                !- Outside Boundary Condition
  {5baac231-9d82-4d75-be8f-7e58a254caeb}, !- Outside Boundary Condition Object
  NoSun,                                  !- Sun Exposure
  NoWind,                                 !- Wind Exposure
  ,                                       !- View Factor to Ground
  ,                                       !- Number of Vertices
  -3, 3.00000000000003, 4,                !- X,Y,Z Vertex 1 {m}
  -3, 3.00000000000003, 0,                !- X,Y,Z Vertex 2 {m}
  0, 2.8421709430404e-14, 0,              !- X,Y,Z Vertex 3 {m}
  0, 2.8421709430404e-14, 4;              !- X,Y,Z Vertex 4 {m}

OS:Surface,
  {7693ee18-a81a-43c7-9893-cf4b1c24c638}, !- Handle
  Surface 12,                             !- Name
  RoofCeiling,                            !- Surface Type
  ,                                       !- Construction Name
  {a715b63e-ff7e-4c3b-ae72-040a283461a0}, !- Space Name
  Surface,                                !- Outside Boundary Condition
  {c0e27f4d-4415-483f-acc3-011628d3b478}, !- Outside Boundary Condition Object
  NoSun,                                  !- Sun Exposure
  NoWind,                                 !- Wind Exposure
  ,                                       !- View Factor to Ground
  ,                                       !- Number of Vertices
  0, 2.8421709430404e-14, 4,              !- X,Y,Z Vertex 1 {m}
  22.2807354925575, 2.8421709430404e-14, 4, !- X,Y,Z Vertex 2 {m}
  25.2807354925575, 3.00000000000003, 4,  !- X,Y,Z Vertex 3 {m}
  -3, 3.00000000000003, 4;                !- X,Y,Z Vertex 4 {m}

OS:Space,
  {cfe7fbba-1898-409d-a5b3-39811f0d8501}, !- Handle
  Story 1 East Perimeter Space,           !- Name
  ,                                       !- Space Type Name
  ,                                       !- Default Construction Set Name
  ,                                       !- Default Schedule Set Name
  -0,                                     !- Direction of Relative North {deg}
  25.2807354925575,                       !- X Origin {m}
  3,                                      !- Y Origin {m}
  0,                                      !- Z Origin {m}
  {a7753ffe-18c5-40e9-a643-b0b0651fbbbc}, !- Building Story Name
  {e068c281-1357-49e6-884a-cef08b25f164}; !- Thermal Zone Name

OS:Surface,
  {6cac7ed4-0c57-469c-a010-9be62373b2d7}, !- Handle
  Surface 13,                             !- Name
  Floor,                                  !- Surface Type
  ,                                       !- Construction Name
  {cfe7fbba-1898-409d-a5b3-39811f0d8501}, !- Space Name
  Ground,                                 !- Outside Boundary Condition
  ,                                       !- Outside Boundary Condition Object
  NoSun,                                  !- Sun Exposure
  NoWind,                                 !- Wind Exposure
  ,                                       !- View Factor to Ground
  ,                                       !- Number of Vertices
  3.00000000000003, 25.2807354925575, 0,  !- X,Y,Z Vertex 1 {m}
  3.00000000000003, -3, 0,                !- X,Y,Z Vertex 2 {m}
  2.8421709430404e-14, 0, 0,              !- X,Y,Z Vertex 3 {m}
  2.8421709430404e-14, 22.2807354925575, 0; !- X,Y,Z Vertex 4 {m}

OS:Surface,
  {c639509e-8537-477b-aeea-6c0e1b377c19}, !- Handle
  Surface 14,                             !- Name
  Wall,                                   !- Surface Type
  ,                                       !- Construction Name
  {cfe7fbba-1898-409d-a5b3-39811f0d8501}, !- Space Name
  Outdoors,                               !- Outside Boundary Condition
  ,                                       !- Outside Boundary Condition Object
  SunExposed,                             !- Sun Exposure
  WindExposed,                            !- Wind Exposure
  ,                                       !- View Factor to Ground
  ,                                       !- Number of Vertices
  3.00000000000003, -3, 4,                !- X,Y,Z Vertex 1 {m}
  3.00000000000003, -3, 0,                !- X,Y,Z Vertex 2 {m}
  3.00000000000003, 25.2807354925575, 0,  !- X,Y,Z Vertex 3 {m}
  3.00000000000003, 25.2807354925575, 4;  !- X,Y,Z Vertex 4 {m}

OS:Surface,
  {40aa01b6-0c54-4496-b396-71c445faed10}, !- Handle
  Surface 15,                             !- Name
  Wall,                                   !- Surface Type
  ,                                       !- Construction Name
  {cfe7fbba-1898-409d-a5b3-39811f0d8501}, !- Space Name
  Surface,                                !- Outside Boundary Condition
  {a644403b-db6b-4d2e-90ea-8e025bc1489a}, !- Outside Boundary Condition Object
  NoSun,                                  !- Sun Exposure
  NoWind,                                 !- Wind Exposure
  ,                                       !- View Factor to Ground
  ,                                       !- Number of Vertices
  2.8421709430404e-14, 0, 4,              !- X,Y,Z Vertex 1 {m}
  2.8421709430404e-14, 0, 0,              !- X,Y,Z Vertex 2 {m}
  3.00000000000003, -3, 0,                !- X,Y,Z Vertex 3 {m}
  3.00000000000003, -3, 4;                !- X,Y,Z Vertex 4 {m}

OS:Surface,
  {4529288b-9e28-4485-9695-704c9e47fce5}, !- Handle
  Surface 16,                             !- Name
  Wall,                                   !- Surface Type
  ,                                       !- Construction Name
  {cfe7fbba-1898-409d-a5b3-39811f0d8501}, !- Space Name
  Surface,                                !- Outside Boundary Condition
  {2dd169a4-3249-4f09-88e4-0330d69a1479}, !- Outside Boundary Condition Object
  NoSun,                                  !- Sun Exposure
  NoWind,                                 !- Wind Exposure
  ,                                       !- View Factor to Ground
  ,                                       !- Number of Vertices
  2.8421709430404e-14, 22.2807354925575, 4, !- X,Y,Z Vertex 1 {m}
  2.8421709430404e-14, 22.2807354925575, 0, !- X,Y,Z Vertex 2 {m}
  2.8421709430404e-14, 0, 0,              !- X,Y,Z Vertex 3 {m}
  2.8421709430404e-14, 0, 4;              !- X,Y,Z Vertex 4 {m}

OS:Surface,
  {3a1cd73a-9f0d-479d-94c3-8bc861df99f0}, !- Handle
  Surface 17,                             !- Name
  Wall,                                   !- Surface Type
  ,                                       !- Construction Name
  {cfe7fbba-1898-409d-a5b3-39811f0d8501}, !- Space Name
  Surface,                                !- Outside Boundary Condition
  {9d695a8a-1638-4382-9bb8-0fcaa29abf9b}, !- Outside Boundary Condition Object
  NoSun,                                  !- Sun Exposure
  NoWind,                                 !- Wind Exposure
  ,                                       !- View Factor to Ground
  ,                                       !- Number of Vertices
  3.00000000000003, 25.2807354925575, 4,  !- X,Y,Z Vertex 1 {m}
  3.00000000000003, 25.2807354925575, 0,  !- X,Y,Z Vertex 2 {m}
  2.8421709430404e-14, 22.2807354925575, 0, !- X,Y,Z Vertex 3 {m}
  2.8421709430404e-14, 22.2807354925575, 4; !- X,Y,Z Vertex 4 {m}

OS:Surface,
  {ab9b08aa-96e5-485a-a5f5-0ce2a09f6f90}, !- Handle
  Surface 18,                             !- Name
  RoofCeiling,                            !- Surface Type
  ,                                       !- Construction Name
  {cfe7fbba-1898-409d-a5b3-39811f0d8501}, !- Space Name
  Surface,                                !- Outside Boundary Condition
  {bb3aebe9-3388-488e-b230-de96e890cefd}, !- Outside Boundary Condition Object
  NoSun,                                  !- Sun Exposure
  NoWind,                                 !- Wind Exposure
  ,                                       !- View Factor to Ground
  ,                                       !- Number of Vertices
  2.8421709430404e-14, 22.2807354925575, 4, !- X,Y,Z Vertex 1 {m}
  2.8421709430404e-14, 0, 4,              !- X,Y,Z Vertex 2 {m}
  3.00000000000003, -3, 4,                !- X,Y,Z Vertex 3 {m}
  3.00000000000003, 25.2807354925575, 4;  !- X,Y,Z Vertex 4 {m}

OS:Space,
  {91d3f1d1-a232-4524-a9d3-bdb2851cc620}, !- Handle
  Story 1 South Perimeter Space,          !- Name
  ,                                       !- Space Type Name
  ,                                       !- Default Construction Set Name
  ,                                       !- Default Schedule Set Name
  -0,                                     !- Direction of Relative North {deg}
  0,                                      !- X Origin {m}
  0,                                      !- Y Origin {m}
  0,                                      !- Z Origin {m}
  {a7753ffe-18c5-40e9-a643-b0b0651fbbbc}, !- Building Story Name
  {617674a2-5c01-4994-8a9a-ef379339f2b9}; !- Thermal Zone Name

OS:Surface,
  {8e7c5e69-6b52-4cb0-97ab-5fdb02c7654e}, !- Handle
  Surface 19,                             !- Name
  Floor,                                  !- Surface Type
  ,                                       !- Construction Name
  {91d3f1d1-a232-4524-a9d3-bdb2851cc620}, !- Space Name
  Ground,                                 !- Outside Boundary Condition
  ,                                       !- Outside Boundary Condition Object
  NoSun,                                  !- Sun Exposure
  NoWind,                                 !- Wind Exposure
  ,                                       !- View Factor to Ground
  ,                                       !- Number of Vertices
  28.2807354925575, 0, 0,                 !- X,Y,Z Vertex 1 {m}
  0, 0, 0,                                !- X,Y,Z Vertex 2 {m}
  3, 3, 0,                                !- X,Y,Z Vertex 3 {m}
  25.2807354925575, 3, 0;                 !- X,Y,Z Vertex 4 {m}

OS:Surface,
  {7c916605-3bb1-4a84-ad72-c2ac9fbabfd0}, !- Handle
  Surface 20,                             !- Name
  Wall,                                   !- Surface Type
  ,                                       !- Construction Name
  {91d3f1d1-a232-4524-a9d3-bdb2851cc620}, !- Space Name
  Outdoors,                               !- Outside Boundary Condition
  ,                                       !- Outside Boundary Condition Object
  SunExposed,                             !- Sun Exposure
  WindExposed,                            !- Wind Exposure
  ,                                       !- View Factor to Ground
  ,                                       !- Number of Vertices
  0, 0, 4,                                !- X,Y,Z Vertex 1 {m}
  0, 0, 0,                                !- X,Y,Z Vertex 2 {m}
  28.2807354925575, 0, 0,                 !- X,Y,Z Vertex 3 {m}
  28.2807354925575, 0, 4;                 !- X,Y,Z Vertex 4 {m}

OS:Surface,
  {aa1e1095-d70a-4564-9756-dd063a1ce5a9}, !- Handle
  Surface 21,                             !- Name
  Wall,                                   !- Surface Type
  ,                                       !- Construction Name
  {91d3f1d1-a232-4524-a9d3-bdb2851cc620}, !- Space Name
  Surface,                                !- Outside Boundary Condition
  {c0cd83a3-d5c7-449b-ac61-17841c1dc18d}, !- Outside Boundary Condition Object
  NoSun,                                  !- Sun Exposure
  NoWind,                                 !- Wind Exposure
  ,                                       !- View Factor to Ground
  ,                                       !- Number of Vertices
  3, 3, 4,                                !- X,Y,Z Vertex 1 {m}
  3, 3, 0,                                !- X,Y,Z Vertex 2 {m}
  0, 0, 0,                                !- X,Y,Z Vertex 3 {m}
  0, 0, 4;                                !- X,Y,Z Vertex 4 {m}

OS:Surface,
  {d0b21cb2-016c-4229-ade5-afadb629739e}, !- Handle
  Surface 22,                             !- Name
  Wall,                                   !- Surface Type
  ,                                       !- Construction Name
  {91d3f1d1-a232-4524-a9d3-bdb2851cc620}, !- Space Name
  Surface,                                !- Outside Boundary Condition
  {935f87c0-5fd4-4375-a226-df38f8e807d2}, !- Outside Boundary Condition Object
  NoSun,                                  !- Sun Exposure
  NoWind,                                 !- Wind Exposure
  ,                                       !- View Factor to Ground
  ,                                       !- Number of Vertices
  25.2807354925575, 3, 4,                 !- X,Y,Z Vertex 1 {m}
  25.2807354925575, 3, 0,                 !- X,Y,Z Vertex 2 {m}
  3, 3, 0,                                !- X,Y,Z Vertex 3 {m}
  3, 3, 4;                                !- X,Y,Z Vertex 4 {m}

OS:Surface,
  {a644403b-db6b-4d2e-90ea-8e025bc1489a}, !- Handle
  Surface 23,                             !- Name
  Wall,                                   !- Surface Type
  ,                                       !- Construction Name
  {91d3f1d1-a232-4524-a9d3-bdb2851cc620}, !- Space Name
  Surface,                                !- Outside Boundary Condition
  {40aa01b6-0c54-4496-b396-71c445faed10}, !- Outside Boundary Condition Object
  NoSun,                                  !- Sun Exposure
  NoWind,                                 !- Wind Exposure
  ,                                       !- View Factor to Ground
  ,                                       !- Number of Vertices
  28.2807354925575, 0, 4,                 !- X,Y,Z Vertex 1 {m}
  28.2807354925575, 0, 0,                 !- X,Y,Z Vertex 2 {m}
  25.2807354925575, 3, 0,                 !- X,Y,Z Vertex 3 {m}
  25.2807354925575, 3, 4;                 !- X,Y,Z Vertex 4 {m}

OS:Surface,
  {1e18f367-b66c-4cb2-9d0f-98969f9489f1}, !- Handle
  Surface 24,                             !- Name
  RoofCeiling,                            !- Surface Type
  ,                                       !- Construction Name
  {91d3f1d1-a232-4524-a9d3-bdb2851cc620}, !- Space Name
  Surface,                                !- Outside Boundary Condition
  {97d00251-7f04-44e8-bae0-ba97562c6a01}, !- Outside Boundary Condition Object
  NoSun,                                  !- Sun Exposure
  NoWind,                                 !- Wind Exposure
  ,                                       !- View Factor to Ground
  ,                                       !- Number of Vertices
  25.2807354925575, 3, 4,                 !- X,Y,Z Vertex 1 {m}
  3, 3, 4,                                !- X,Y,Z Vertex 2 {m}
  0, 0, 4,                                !- X,Y,Z Vertex 3 {m}
  28.2807354925575, 0, 4;                 !- X,Y,Z Vertex 4 {m}

OS:Space,
  {53e2cfc9-7e80-407b-8c58-3aa5ef306f7e}, !- Handle
  Story 1 Core Space,                     !- Name
  ,                                       !- Space Type Name
  ,                                       !- Default Construction Set Name
  ,                                       !- Default Schedule Set Name
  -0,                                     !- Direction of Relative North {deg}
  3,                                      !- X Origin {m}
  3,                                      !- Y Origin {m}
  0,                                      !- Z Origin {m}
  {a7753ffe-18c5-40e9-a643-b0b0651fbbbc}, !- Building Story Name
  {6c9fd73b-04da-464b-884a-9b3985516c5a}; !- Thermal Zone Name

OS:Surface,
  {9e93c7fc-86aa-46fe-b45b-b8d2acf9f633}, !- Handle
  Surface 25,                             !- Name
  Floor,                                  !- Surface Type
  ,                                       !- Construction Name
  {53e2cfc9-7e80-407b-8c58-3aa5ef306f7e}, !- Space Name
  Ground,                                 !- Outside Boundary Condition
  ,                                       !- Outside Boundary Condition Object
  NoSun,                                  !- Sun Exposure
  NoWind,                                 !- Wind Exposure
  ,                                       !- View Factor to Ground
  ,                                       !- Number of Vertices
  0, 0, 0,                                !- X,Y,Z Vertex 1 {m}
  0, 22.2807354925575, 0,                 !- X,Y,Z Vertex 2 {m}
  22.2807354925575, 22.2807354925575, 0,  !- X,Y,Z Vertex 3 {m}
  22.2807354925575, 0, 0;                 !- X,Y,Z Vertex 4 {m}

OS:Surface,
  {b706f3d0-8681-4258-aedb-18097b75a2de}, !- Handle
  Surface 26,                             !- Name
  Wall,                                   !- Surface Type
  ,                                       !- Construction Name
  {53e2cfc9-7e80-407b-8c58-3aa5ef306f7e}, !- Space Name
  Surface,                                !- Outside Boundary Condition
  {2d927173-3cdf-4929-8221-215bd55d703e}, !- Outside Boundary Condition Object
  NoSun,                                  !- Sun Exposure
  NoWind,                                 !- Wind Exposure
  ,                                       !- View Factor to Ground
  ,                                       !- Number of Vertices
  0, 22.2807354925575, 4,                 !- X,Y,Z Vertex 1 {m}
  0, 22.2807354925575, 0,                 !- X,Y,Z Vertex 2 {m}
  0, 0, 0,                                !- X,Y,Z Vertex 3 {m}
  0, 0, 4;                                !- X,Y,Z Vertex 4 {m}

OS:Surface,
  {8324cefd-309b-4b01-bc95-53ac233ac49a}, !- Handle
  Surface 27,                             !- Name
  Wall,                                   !- Surface Type
  ,                                       !- Construction Name
  {53e2cfc9-7e80-407b-8c58-3aa5ef306f7e}, !- Space Name
  Surface,                                !- Outside Boundary Condition
  {b6a2849d-bb68-4d78-abf2-473db2f306b3}, !- Outside Boundary Condition Object
  NoSun,                                  !- Sun Exposure
  NoWind,                                 !- Wind Exposure
  ,                                       !- View Factor to Ground
  ,                                       !- Number of Vertices
  22.2807354925575, 22.2807354925575, 4,  !- X,Y,Z Vertex 1 {m}
  22.2807354925575, 22.2807354925575, 0,  !- X,Y,Z Vertex 2 {m}
  0, 22.2807354925575, 0,                 !- X,Y,Z Vertex 3 {m}
  0, 22.2807354925575, 4;                 !- X,Y,Z Vertex 4 {m}

OS:Surface,
  {2dd169a4-3249-4f09-88e4-0330d69a1479}, !- Handle
  Surface 28,                             !- Name
  Wall,                                   !- Surface Type
  ,                                       !- Construction Name