
OS:Version,
  {cdc1e99e-a1a2-4947-87dd-10973456b7a2}, !- Handle
  0.10.0;                                 !- Version Identifier

OS:BuildingStory,
  {f9e06535-533f-404b-ad82-bebfba6dad89}, !- Handle
  Story 1,                                !- Name
  0,                                      !- Nominal Z Coordinate {m}
  4,                                      !- Nominal Floor to Floor Height {m}
  ,                                       !- Default Construction Set Name
  ,                                       !- Default Schedule Set Name
  ;                                       !- Group Rendering Name

OS:Space,
  {038b7fb8-96c8-4a1f-aeae-62631061c1f0}, !- Handle
  Story 1 West Perimeter Space,           !- Name
  ,                                       !- Space Type Name
  ,                                       !- Default Construction Set Name
  ,                                       !- Default Schedule Set Name
  -0,                                     !- Direction of Relative North {deg}
  0,                                      !- X Origin {m}
  0,                                      !- Y Origin {m}
  0,                                      !- Z Origin {m}
  {f9e06535-533f-404b-ad82-bebfba6dad89}, !- Building Story Name
  {e92d37f1-448b-4e1b-85bd-627a2ff30eac}; !- Thermal Zone Name

OS:Surface,
  {c45b40eb-6735-4101-8586-82c6aa73e8b5}, !- Handle
  Surface 1,                              !- Name
  Floor,                                  !- Surface Type
  ,                                       !- Construction Name
  {038b7fb8-96c8-4a1f-aeae-62631061c1f0}, !- Space Name
  Ground,                                 !- Outside Boundary Condition
  ,                                       !- Outside Boundary Condition Object
  NoSun,                                  !- Sun Exposure
  NoWind,                                 !- Wind Exposure
  ,                                       !- View Factor to Ground
  ,                                       !- Number of Vertices
  0, 0, 0,                                !- X,Y,Z Vertex 1 {m}
  0, 17.3205080756888, 0,                 !- X,Y,Z Vertex 2 {m}
  3, 14.3205080756888, 0,                 !- X,Y,Z Vertex 3 {m}
  3, 3, 0;                                !- X,Y,Z Vertex 4 {m}

OS:Surface,
  {ef59be37-3dde-4633-bdb0-e09a4357a00d}, !- Handle
  Surface 2,                              !- Name
  Wall,                                   !- Surface Type
  ,                                       !- Construction Name
  {038b7fb8-96c8-4a1f-aeae-62631061c1f0}, !- Space Name
  Outdoors,                               !- Outside Boundary Condition
  ,                                       !- Outside Boundary Condition Object
  SunExposed,                             !- Sun Exposure
  WindExposed,                            !- Wind Exposure
  ,                                       !- View Factor to Ground
  ,                                       !- Number of Vertices
  0, 17.3205080756888, 4,                 !- X,Y,Z Vertex 1 {m}
  0, 17.3205080756888, 0,                 !- X,Y,Z Vertex 2 {m}
  0, 0, 0,                                !- X,Y,Z Vertex 3 {m}
  0, 0, 4;                                !- X,Y,Z Vertex 4 {m}

OS:Surface,
  {0d7dd791-e0e7-47fb-a818-caf1dcbf4342}, !- Handle
  Surface 3,                              !- Name
  Wall,                                   !- Surface Type
  ,                                       !- Construction Name
  {038b7fb8-96c8-4a1f-aeae-62631061c1f0}, !- Space Name
  Surface,                                !- Outside Boundary Condition
  {08e506c6-5fa7-418f-aebd-6b9da2378321}, !- Outside Boundary Condition Object
  NoSun,                                  !- Sun Exposure
  NoWind,                                 !- Wind Exposure
  ,                                       !- View Factor to Ground
  ,                                       !- Number of Vertices
  3, 14.3205080756888, 4,                 !- X,Y,Z Vertex 1 {m}
  3, 14.3205080756888, 0,                 !- X,Y,Z Vertex 2 {m}
  0, 17.3205080756888, 0,                 !- X,Y,Z Vertex 3 {m}
  0, 17.3205080756888, 4;                 !- X,Y,Z Vertex 4 {m}

OS:Surface,
  {7da4877e-c58d-40ac-a4fd-3ed893da4083}, !- Handle
  Surface 4,                              !- Name
  Wall,                                   !- Surface Type
  ,                                       !- Construction Name
  {038b7fb8-96c8-4a1f-aeae-62631061c1f0}, !- Space Name
  Surface,                                !- Outside Boundary Condition
  {a315b326-7275-4c55-86e1-bd5df3dea1dc}, !- Outside Boundary Condition Object
  NoSun,                                  !- Sun Exposure
  NoWind,                                 !- Wind Exposure
  ,                                       !- View Factor to Ground
  ,                                       !- Number of Vertices
  3, 3, 4,                                !- X,Y,Z Vertex 1 {m}
  3, 3, 0,                                !- X,Y,Z Vertex 2 {m}
  3, 14.3205080756888, 0,                 !- X,Y,Z Vertex 3 {m}
  3, 14.3205080756888, 4;                 !- X,Y,Z Vertex 4 {m}

OS:Surface,
  {f62446d0-d675-44d5-b452-c5b03e9edd51}, !- Handle
  Surface 5,                              !- Name
  Wall,                                   !- Surface Type
  ,                                       !- Construction Name
  {038b7fb8-96c8-4a1f-aeae-62631061c1f0}, !- Space Name
  Surface,                                !- Outside Boundary Condition
  {c766daac-3ffd-4bff-b9c1-ebeb2ee25539}, !- Outside Boundary Condition Object
  NoSun,                                  !- Sun Exposure
  NoWind,                                 !- Wind Exposure
  ,                                       !- View Factor to Ground
  ,                                       !- Number of Vertices
  0, 0, 4,                                !- X,Y,Z Vertex 1 {m}
  0, 0, 0,                                !- X,Y,Z Vertex 2 {m}
  3, 3, 0,                                !- X,Y,Z Vertex 3 {m}
  3, 3, 4;                                !- X,Y,Z Vertex 4 {m}

OS:Surface,
  {43a7c31b-f984-4eeb-b5c5-44a5b84905be}, !- Handle
  Surface 6,                              !- Name
  RoofCeiling,                            !- Surface Type
  ,                                       !- Construction Name
  {038b7fb8-96c8-4a1f-aeae-62631061c1f0}, !- Space Name
  Surface,                                !- Outside Boundary Condition
  {ba1dbb11-f9ff-4385-a37a-f973605d9385}, !- Outside Boundary Condition Object
  NoSun,                                  !- Sun Exposure
  NoWind,                                 !- Wind Exposure
  ,                                       !- View Factor to Ground
  ,                                       !- Number of Vertices
  3, 3, 4,                                !- X,Y,Z Vertex 1 {m}
  3, 14.3205080756888, 4,                 !- X,Y,Z Vertex 2 {m}
  0, 17.3205080756888, 4,                 !- X,Y,Z Vertex 3 {m}
  0, 0, 4;                                !- X,Y,Z Vertex 4 {m}

OS:Space,
  {523ca671-8534-4d76-9d8e-04285f30fdbf}, !- Handle
  Story 1 North Perimeter Space,          !- Name
  ,                                       !- Space Type Name
  ,                                       !- Default Construction Set Name
  ,                                       !- Default Schedule Set Name
  -0,                                     !- Direction of Relative North {deg}
  3,                                      !- X Origin {m}
  14.3205080756888,                       !- Y Origin {m}
  0,                                      !- Z Origin {m}
  {f9e06535-533f-404b-ad82-bebfba6dad89}, !- Building Story Name
  {4d2c7b03-427b-4292-ae16-ffe6257083f8}; !- Thermal Zone Name

OS:Surface,
  {00c1b11b-7180-4953-a1c9-b15dc0505fe4}, !- Handle
  Surface 7,                              !- Name
  Floor,                                  !- Surface Type
  ,                                       !- Construction Name
  {523ca671-8534-4d76-9d8e-04285f30fdbf}, !- Space Name
  Ground,                                 !- Outside Boundary Condition
  ,                                       !- Outside Boundary Condition Object
  NoSun,                                  !- Sun Exposure
  NoWind,                                 !- Wind Exposure
  ,                                       !- View Factor to Ground
  ,                                       !- Number of Vertices
  -3, 3.00000000000002, 0,                !- X,Y,Z Vertex 1 {m}
  14.3205080756888, 3.00000000000002, 0,  !- X,Y,Z Vertex 2 {m}
  11.3205080756888, 2.48689957516035e-14, 0, !- X,Y,Z Vertex 3 {m}
  0, 2.48689957516035e-14, 0;             !- X,Y,Z Vertex 4 {m}

OS:Surface,
  {e7a59728-b55b-4e3a-8779-0fe373aa2cc1}, !- Handle
  Surface 8,                              !- Name
  Wall,                                   !- Surface Type
  ,                                       !- Construction Name
  {523ca671-8534-4d76-9d8e-04285f30fdbf}, !- Space Name
  Outdoors,                               !- Outside Boundary Condition
  ,                                       !- Outside Boundary Condition Object
  SunExposed,                             !- Sun Exposure
  WindExposed,                            !- Wind Exposure
  ,                                       !- View Factor to Ground
  ,                                       !- Number of Vertices
  14.3205080756888, 3.00000000000002, 4,  !- X,Y,Z Vertex 1 {m}
  14.3205080756888, 3.00000000000002, 0,  !- X,Y,Z Vertex 2 {m}
  -3, 3.00000000000002, 0,                !- X,Y,Z Vertex 3 {m}
  -3, 3.00000000000002, 4;                !- X,Y,Z Vertex 4 {m}

OS:Surface,
  {91b230b4-363e-4329-b9ec-a823c9a2e751}, !- Handle
  Surface 9,                              !- Name
  Wall,                                   !- Surface Type
  ,                                       !- Construction Name
  {523ca671-8534-4d76-9d8e-04285f30fdbf}, !- Space Name
  Surface,                                !- Outside Boundary Condition
  {b51a4d59-56b0-42eb-97d7-221ebfc00a6e}, !- Outside Boundary Condition Object
  NoSun,                                  !- Sun Exposure
  NoWind,                                 !- Wind Exposure
  ,                                       !- View Factor to Ground
  ,                                       !- Number of Vertices
  11.3205080756888, 2.48689957516035e-14, 4, !- X,Y,Z Vertex 1 {m}
  11.3205080756888, 2.48689957516035e-14, 0, !- X,Y,Z Vertex 2 {m}
  14.3205080756888, 3.00000000000002, 0,  !- X,Y,Z Vertex 3 {m}
  14.3205080756888, 3.00000000000002, 4;  !- X,Y,Z Vertex 4 {m}

OS:Surface,
  {d9e98af7-30a8-4c69-b2e6-1e3867295e6f}, !- Handle
  Surface 10,                             !- Name
  Wall,                                   !- Surface Type
  ,                                       !- Construction Name
  {523ca671-8534-4d76-9d8e-04285f30fdbf}, !- Space Name
  Surface,                                !- Outside Boundary Condition
  {3ecf5d57-7ff8-4a79-8655-08f5a9d3341d}, !- Outside Boundary Condition Object
  NoSun,                                  !- Sun Exposure
  NoWind,                                 !- Wind Exposure
  ,                                       !- View Factor to Ground
  ,                                       !- Number of Vertices
  0, 2.48689957516035e-14, 4,             !- X,Y,Z Vertex 1 {m}
  0, 2.48689957516035e-14, 0,             !- X,Y,Z Vertex 2 {m}
  11.3205080756888, 2.48689957516035e-14, 0, !- X,Y,Z Vertex 3 {m}
  11.3205080756888, 2.48689957516035e-14, 4; !- X,Y,Z Vertex 4 {m}

OS:Surface,
  {08e506c6-5fa7-418f-aebd-6b9da2378321}, !- Handle
  Surface 11,                             !- Name
  Wall,                                   !- Surface Type
  ,                                       !- Construction Name
  {523ca671-8534-4d76-9d8e-04285f30fdbf}, !- Space Name
  Surface,                                !- Outside Boundary Condition
  {0d7dd791-e0e7-47fb-a818-caf1dcbf4342}, !- Outside Boundary Condition Object
  NoSun,                                  !- Sun Exposure
  NoWind,                                 !- Wind Exposure
  ,                                       !- View Factor to Ground
  ,                                       !- Number of Vertices
  -3, 3.00000000000002, 4,                !- X,Y,Z Vertex 1 {m}
  -3, 3.00000000000002, 0,                !- X,Y,Z Vertex 2 {m}
  0, 2.48689957516035e-14, 0,             !- X,Y,Z Vertex 3 {m}
  0, 2.48689957516035e-14, 4;             !- X,Y,Z Vertex 4 {m}

OS:Surface,
  {825dad65-c0f4-46d5-bf1d-8dcdf71d316e}, !- Handle
  Surface 12,                             !- Name
  RoofCeiling,                            !- Surface Type
  ,                                       !- Construction Name
  {523ca671-8534-4d76-9d8e-04285f30fdbf}, !- Space Name
  Surface,                                !- Outside Boundary Condition
  {dc493f22-aca2-4737-a33c-8c2394491844}, !- Outside Boundary Condition Object
  NoSun,                                  !- Sun Exposure
  NoWind,                                 !- Wind Exposure
  ,                                       !- View Factor to Ground
  ,                                       !- Number of Vertices
  0, 2.48689957516035e-14, 4,             !- X,Y,Z Vertex 1 {m}
  11.3205080756888, 2.48689957516035e-14, 4, !- X,Y,Z Vertex 2 {m}
  14.3205080756888, 3.00000000000002, 4,  !- X,Y,Z Vertex 3 {m}
  -3, 3.00000000000002, 4;                !- X,Y,Z Vertex 4 {m}

OS:Space,
  {65dde2dd-8997-41b4-a4d1-1cd6fda24037}, !- Handle
  Story 1 East Perimeter Space,           !- Name
  ,                                       !- Space Type Name
  ,                                       !- Default Construction Set Name
  ,                                       !- Default Schedule Set Name
  -0,                                     !- Direction of Relative North {deg}
  14.3205080756888,                       !- X Origin {m}
  3,                                      !- Y Origin {m}
  0,                                      !- Z Origin {m}
  {f9e06535-533f-404b-ad82-bebfba6dad89}, !- Building Story Name
  {87bb5b1a-9e59-4b5a-86ce-bbff2272ae14}; !- Thermal Zone Name

OS:Surface,
  {08c32696-32cf-49a7-9da3-efadc85e85a2}, !- Handle
  Surface 13,                             !- Name
  Floor,                                  !- Surface Type
  ,                                       !- Construction Name
  {65dde2dd-8997-41b4-a4d1-1cd6fda24037}, !- Space Name
  Ground,                                 !- Outside Boundary Condition
  ,                                       !- Outside Boundary Condition Object
  NoSun,                                  !- Sun Exposure
  NoWind,                                 !- Wind Exposure
  ,                                       !- View Factor to Ground
  ,                                       !- Number of Vertices
  3.00000000000002, 14.3205080756888, 0,  !- X,Y,Z Vertex 1 {m}
  3.00000000000002, -3, 0,                !- X,Y,Z Vertex 2 {m}
  2.48689957516035e-14, 0, 0,             !- X,Y,Z Vertex 3 {m}
  2.48689957516035e-14, 11.3205080756888, 0; !- X,Y,Z Vertex 4 {m}

OS:Surface,
  {faeaecad-895f-47f8-86d2-a11d91f0ae15}, !- Handle
  Surface 14,                             !- Name
  Wall,                                   !- Surface Type
  ,                                       !- Construction Name
  {65dde2dd-8997-41b4-a4d1-1cd6fda24037}, !- Space Name
  Outdoors,                               !- Outside Boundary Condition
  ,                                       !- Outside Boundary Condition Object
  SunExposed,                             !- Sun Exposure
  WindExposed,                            !- Wind Exposure
  ,                                       !- View Factor to Ground
  ,                                       !- Number of Vertices
  3.00000000000002, -3, 4,                !- X,Y,Z Vertex 1 {m}
  3.00000000000002, -3, 0,                !- X,Y,Z Vertex 2 {m}
  3.00000000000002, 14.3205080756888, 0,  !- X,Y,Z Vertex 3 {m}
  3.00000000000002, 14.3205080756888, 4;  !- X,Y,Z Vertex 4 {m}

OS:Surface,
  {bb303d00-9a97-4a3a-adb6-57d71bd983de}, !- Handle
  Surface 15,                             !- Name
  Wall,                                   !- Surface Type
  ,                                       !- Construction Name
  {65dde2dd-8997-41b4-a4d1-1cd6fda24037}, !- Space Name
  Surface,                                !- Outside Boundary Condition
  {8bea331d-e1e0-4fcc-a57b-85fc8d5c0f7b}, !- Outside Boundary Condition Object
  NoSun,                                  !- Sun Exposure
  NoWind,                                 !- Wind Exposure
  ,                                       !- View Factor to Ground
  ,                                       !- Number of Vertices
  2.48689957516035e-14, 0, 4,             !- X,Y,Z Vertex 1 {m}
  2.48689957516035e-14, 0, 0,             !- X,Y,Z Vertex 2 {m}
  3.00000000000002, -3, 0,                !- X,Y,Z Vertex 3 {m}
  3.00000000000002, -3, 4;                !- X,Y,Z Vertex 4 {m}

OS:Surface,
  {ae958df9-e2b1-4d21-a6e6-f033f595229e}, !- Handle
  Surface 16,                             !- Name
  Wall,                                   !- Surface Type
  ,                                       !- Construction Name
  {65dde2dd-8997-41b4-a4d1-1cd6fda24037}, !- Space Name
  Surface,                                !- Outside Boundary Condition
  {9db6d5b6-cb81-45d0-89ab-518c2bef0605}, !- Outside Boundary Condition Object
  NoSun,                                  !- Sun Exposure
  NoWind,                                 !- Wind Exposure
  ,                                       !- View Factor to Ground
  ,                                       !- Number of Vertices
  2.48689957516035e-14, 11.3205080756888, 4, !- X,Y,Z Vertex 1 {m}
  2.48689957516035e-14, 11.3205080756888, 0, !- X,Y,Z Vertex 2 {m}
  2.48689957516035e-14, 0, 0,             !- X,Y,Z Vertex 3 {m}
  2.48689957516035e-14, 0, 4;             !- X,Y,Z Vertex 4 {m}

OS:Surface,
  {b51a4d59-56b0-42eb-97d7-221ebfc00a6e}, !- Handle
  Surface 17,                             !- Name
  Wall,                                   !- Surface Type
  ,                                       !- Construction Name
  {65dde2dd-8997-41b4-a4d1-1cd6fda24037}, !- Space Name
  Surface,                                !- Outside Boundary Condition
  {91b230b4-363e-4329-b9ec-a823c9a2e751}, !- Outside Boundary Condition Object
  NoSun,                                  !- Sun Exposure
  NoWind,                                 !- Wind Exposure
  ,                                       !- View Factor to Ground
  ,                                       !- Number of Vertices
  3.00000000000002, 14.3205080756888, 4,  !- X,Y,Z Vertex 1 {m}
  3.00000000000002, 14.3205080756888, 0,  !- X,Y,Z Vertex 2 {m}
  2.48689957516035e-14, 11.3205080756888, 0, !- X,Y,Z Vertex 3 {m}
  2.48689957516035e-14, 11.3205080756888, 4; !- X,Y,Z Vertex 4 {m}

OS:Surface,
  {db2e6e37-c864-44fa-8fb1-934eeb1dcca3}, !- Handle
  Surface 18,                             !- Name
  RoofCeiling,                            !- Surface Type
  ,                                       !- Construction Name
  {65dde2dd-8997-41b4-a4d1-1cd6fda24037}, !- Space Name
  Surface,                                !- Outside Boundary Condition
  {93738e2c-d022-4cf4-9988-23062688fda1}, !- Outside Boundary Condition Object
  NoSun,                                  !- Sun Exposure
  NoWind,                                 !- Wind Exposure
  ,                                       !- View Factor to Ground
  ,                                       !- Number of Vertices
  2.48689957516035e-14, 11.3205080756888, 4, !- X,Y,Z Vertex 1 {m}
  2.48689957516035e-14, 0, 4,             !- X,Y,Z Vertex 2 {m}
  3.00000000000002, -3, 4,                !- X,Y,Z Vertex 3 {m}
  3.00000000000002, 14.3205080756888, 4;  !- X,Y,Z Vertex 4 {m}

OS:Space,
  {a71a343b-58b9-457d-a854-d45ee480b614}, !- Handle
  Story 1 South Perimeter Space,          !- Name
  ,                                       !- Space Type Name
  ,                                       !- Default Construction Set Name
  ,                                       !- Default Schedule Set Name
  -0,                                     !- Direction of Relative North {deg}
  0,                                      !- X Origin {m}
  0,                                      !- Y Origin {m}
  0,                                      !- Z Origin {m}
  {f9e06535-533f-404b-ad82-bebfba6dad89}, !- Building Story Name
  {1fb4b9c3-dee3-44cd-8ee1-87adfe502631}; !- Thermal Zone Name

OS:Surface,
  {47de7fbb-e948-4e07-95a5-d50d57f4b467}, !- Handle
  Surface 19,                             !- Name
  Floor,                                  !- Surface Type
  ,                                       !- Construction Name
  {a71a343b-58b9-457d-a854-d45ee480b614}, !- Space Name
  Ground,                                 !- Outside Boundary Condition
  ,                                       !- Outside Boundary Condition Object
  NoSun,                                  !- Sun Exposure
  NoWind,                                 !- Wind Exposure
  ,                                       !- View Factor to Ground
  ,                                       !- Number of Vertices
  17.3205080756888, 0, 0,                 !- X,Y,Z Vertex 1 {m}
  0, 0, 0,                                !- X,Y,Z Vertex 2 {m}
  3, 3, 0,                                !- X,Y,Z Vertex 3 {m}
  14.3205080756888, 3, 0;                 !- X,Y,Z Vertex 4 {m}

OS:Surface,
  {5b8777f3-1982-41fa-9476-cd1855808ca5}, !- Handle
  Surface 20,                             !- Name
  Wall,                                   !- Surface Type
  ,                                       !- Construction Name
  {a71a343b-58b9-457d-a854-d45ee480b614}, !- Space Name
  Outdoors,                               !- Outside Boundary Condition
  ,                                       !- Outside Boundary Condition Object
  SunExposed,                             !- Sun Exposure
  WindExposed,                            !- Wind Exposure
  ,                                       !- View Factor to Ground
  ,                                       !- Number of Vertices
  0, 0, 4,                                !- X,Y,Z Vertex 1 {m}
  0, 0, 0,                                !- X,Y,Z Vertex 2 {m}
  17.3205080756888, 0, 0,                 !- X,Y,Z Vertex 3 {m}
  17.3205080756888, 0, 4;                 !- X,Y,Z Vertex 4 {m}

OS:Surface,
  {c766daac-3ffd-4bff-b9c1-ebeb2ee25539}, !- Handle
  Surface 21,                             !- Name
  Wall,                                   !- Surface Type
  ,                                       !- Construction Name
  {a71a343b-58b9-457d-a854-d45ee480b614}, !- Space Name
  Surface,                                !- Outside Boundary Condition
  {f62446d0-d675-44d5-b452-c5b03e9edd51}, !- Outside Boundary Condition Object
  NoSun,                                  !- Sun Exposure
  NoWind,                                 !- Wind Exposure
  ,                                       !- View Factor to Ground
  ,                                       !- Number of Vertices
  3, 3, 4,                                !- X,Y,Z Vertex 1 {m}
  3, 3, 0,                                !- X,Y,Z Vertex 2 {m}
  0, 0, 0,                                !- X,Y,Z Vertex 3 {m}
  0, 0, 4;                                !- X,Y,Z Vertex 4 {m}

OS:Surface,
  {f5439b11-1405-416e-bb86-ef21931234b4}, !- Handle
  Surface 22,                             !- Name
  Wall,                                   !- Surface Type
  ,                                       !- Construction Name
  {a71a343b-58b9-457d-a854-d45ee480b614}, !- Space Name
  Surface,                                !- Outside Boundary Condition
  {63b39e61-3e10-4543-898d-667b0d7d494b}, !- Outside Boundary Condition Object
  NoSun,                                  !- Sun Exposure
  NoWind,                                 !- Wind Exposure
  ,                                       !- View Factor to Ground
  ,                                       !- Number of Vertices
  14.3205080756888, 3, 4,                 !- X,Y,Z Vertex 1 {m}
  14.3205080756888, 3, 0,                 !- X,Y,Z Vertex 2 {m}
  3, 3, 0,                                !- X,Y,Z Vertex 3 {m}
  3, 3, 4;                                !- X,Y,Z Vertex 4 {m}

OS:Surface,
  {8bea331d-e1e0-4fcc-a57b-85fc8d5c0f7b}, !- Handle
  Surface 23,                             !- Name
  Wall,                                   !- Surface Type
  ,                                       !- Construction Name
  {a71a343b-58b9-457d-a854-d45ee480b614}, !- Space Name
  Surface,                                !- Outside Boundary Condition
  {bb303d00-9a97-4a3a-adb6-57d71bd983de}, !- Outside Boundary Condition Object
  NoSun,                                  !- Sun Exposure
  NoWind,                                 !- Wind Exposure
  ,                                       !- View Factor to Ground
  ,                                       !- Number of Vertices
  17.3205080756888, 0, 4,                 !- X,Y,Z Vertex 1 {m}
  17.3205080756888, 0, 0,                 !- X,Y,Z Vertex 2 {m}
  14.3205080756888, 3, 0,                 !- X,Y,Z Vertex 3 {m}
  14.3205080756888, 3, 4;                 !- X,Y,Z Vertex 4 {m}

OS:Surface,
  {939a2354-aae9-4cf0-9a8b-15e07eaa6fdf}, !- Handle
  Surface 24,                             !- Name
  RoofCeiling,                            !- Surface Type
  ,                                       !- Construction Name
  {a71a343b-58b9-457d-a854-d45ee480b614}, !- Space Name
  Surface,                                !- Outside Boundary Condition
  {b10498f3-a3ca-4080-9789-0053b770755a}, !- Outside Boundary Condition Object
  NoSun,                                  !- Sun Exposure
  NoWind,                                 !- Wind Exposure
  ,                                       !- View Factor to Ground
  ,                                       !- Number of Vertices
  14.3205080756888, 3, 4,                 !- X,Y,Z Vertex 1 {m}
  3, 3, 4,                                !- X,Y,Z Vertex 2 {m}
  0, 0, 4,                                !- X,Y,Z Vertex 3 {m}
  17.3205080756888, 0, 4;                 !- X,Y,Z Vertex 4 {m}

OS:Space,
  {f98f0a61-c64b-4204-93e6-55b4fe6c4801}, !- Handle
  Story 1 Core Space,                     !- Name
  ,                                       !- Space Type Name
  ,                                       !- Default Construction Set Name
  ,                                       !- Default Schedule Set Name
  -0,                                     !- Direction of Relative North {deg}
  3,                                      !- X Origin {m}
  3,                                      !- Y Origin {m}
  0,                                      !- Z Origin {m}
  {f9e06535-533f-404b-ad82-bebfba6dad89}, !- Building Story Name
  {34575111-71f6-4294-b2bd-837aa4e4d8b5}; !- Thermal Zone Name

OS:Surface,
  {62d9d2c1-dfcd-4f98-b0b6-5aa31c478686}, !- Handle
  Surface 25,                             !- Name
  Floor,                                  !- Surface Type
  ,                                       !- Construction Name
  {f98f0a61-c64b-4204-93e6-55b4fe6c4801}, !- Space Name
  Ground,                                 !- Outside Boundary Condition
  ,                                       !- Outside Boundary Condition Object
  NoSun,                                  !- Sun Exposure
  NoWind,                                 !- Wind Exposure
  ,                                       !- View Factor to Ground
  ,                                       !- Number of Vertices
  0, 0, 0,                                !- X,Y,Z Vertex 1 {m}
  0, 11.3205080756888, 0,                 !- X,Y,Z Vertex 2 {m}
  11.3205080756888, 11.3205080756888, 0,  !- X,Y,Z Vertex 3 {m}
  11.3205080756888, 0, 0;                 !- X,Y,Z Vertex 4 {m}

OS:Surface,
  {a315b326-7275-4c55-86e1-bd5df3dea1dc}, !- Handle
  Surface 26,                             !- Name
  Wall,                                   !- Surface Type
  ,                                       !- Construction Name
  {f98f0a61-c64b-4204-93e6-55b4fe6c4801}, !- Space Name
  Surface,                                !- Outside Boundary Condition
  {7da4877e-c58d-40ac-a4fd-3ed893da4083}, !- Outside Boundary Condition Object
  NoSun,                                  !- Sun Exposure
  NoWind,                                 !- Wind Exposure
  ,                                       !- View Factor to Ground
  ,                                       !- Number of Vertices
  0, 11.3205080756888, 4,                 !- X,Y,Z Vertex 1 {m}
  0, 11.3205080756888, 0,                 !- X,Y,Z Vertex 2 {m}
  0, 0, 0,                                !- X,Y,Z Vertex 3 {m}
  0, 0, 4;                                !- X,Y,Z Vertex 4 {m}

OS:Surface,
  {3ecf5d57-7ff8-4a79-8655-08f5a9d3341d}, !- Handle
  Surface 27,                             !- Name
  Wall,                                   !- Surface Type
  ,                                       !- Construction Name
  {f98f0a61-c64b-4204-93e6-55b4fe6c4801}, !- Space Name
  Surface,                                !- Outside Boundary Condition
  {d9e98af7-30a8-4c69-b2e6-1e3867295e6f}, !- Outside Boundary Condition Object
  NoSun,                                  !- Sun Exposure
  NoWind,                                 !- Wind Exposure
  ,                                       !- View Factor to Ground
  ,                                       !- Number of Vertices
  11.3205080756888, 11.3205080756888, 4,  !- X,Y,Z Vertex 1 {m}
  11.3205080756888, 11.3205080756888, 0,  !- X,Y,Z Vertex 2 {m}
  0, 11.3205080756888, 0,                 !- X,Y,Z Vertex 3 {m}
  0, 11.3205080756888, 4;                 !- X,Y,Z Vertex 4 {m}

OS:Surface,
  {9db6d5b6-cb81-45d0-89ab-518c2bef0605}, !- Handle
  Surface 28,                             !- Name
  Wall,                                   !- Surface Type
  ,                                       !- Construction Name