
OS:Version,
  {d4bc10e8-2e6b-45e8-9bdc-657b5ff27d23}, !- Handle
  0.10.0;                                 !- Version Identifier

OS:BuildingStory,
  {b49b4da5-a672-48bb-906f-2b5be86badbc}, !- Handle
  Story 1,                                !- Name
  0,                                      !- Nominal Z Coordinate {m}
  4,                                      !- Nominal Floor to Floor Height {m}
  ,                                       !- Default Construction Set Name
  ,                                       !- Default Schedule Set Name
  ;                                       !- Group Rendering Name

OS:Space,
  {23b2e39d-ecbe-4f6a-a76f-8d8de646519f}, !- Handle
  Story 1 West Perimeter Space,           !- Name
  ,                                       !- Space Type Name
  ,                                       !- Default Construction Set Name
  ,                                       !- Default Schedule Set Name
  -0,                                     !- Direction of Relative North {deg}
  0,                                      !- X Origin {m}
  0,                                      !- Y Origin {m}
  0,                                      !- Z Origin {m}
  {b49b4da5-a672-48bb-906f-2b5be86badbc}, !- Building Story Name
  {a232d5f7-b9fc-4574-b61f-17cad718b2eb}; !- Thermal Zone Name

OS:Surface,
  {977c20b4-7d48-430a-a343-9f3cdce26c56}, !- Handle
  Surface 1,                              !- Name
  Floor,                                  !- Surface Type
  ,                                       !- Construction Name
  {23b2e39d-ecbe-4f6a-a76f-8d8de646519f}, !- Space Name
  Ground,                                 !- Outside Boundary Condition
  ,                                       !- Outside Boundary Condition Object
  NoSun,                                  !- Sun Exposure
  NoWind,                                 !- Wind Exposure
  ,                                       !- View Factor to Ground
  ,                                       !- Number of Vertices
  0, 0, 0,                                !- X,Y,Z Vertex 1 {m}
  0, 7.07106781186548, 0,                 !- X,Y,Z Vertex 2 {m}
  3, 4.07106781186548, 0,                 !- X,Y,Z Vertex 3 {m}
  3, 3, 0;                                !- X,Y,Z Vertex 4 {m}

OS:Surface,
  {f9052495-fe4d-4b2a-aca8-49c96a115c38}, !- Handle
  Surface 2,                              !- Name
  Wall,                                   !- Surface Type
  ,                                       !- Construction Name
  {23b2e39d-ecbe-4f6a-a76f-8d8de646519f}, !- Space Name
  Outdoors,                               !- Outside Boundary Condition
  ,                                       !- Outside Boundary Condition Object
  SunExposed,                             !- Sun Exposure
  WindExposed,                            !- Wind Exposure
  ,                                       !- View Factor to Ground
  ,                                       !- Number of Vertices
  0, 7.07106781186548, 4,                 !- X,Y,Z Vertex 1 {m}
  0, 7.07106781186548, 0,                 !- X,Y,Z Vertex 2 {m}
  0, 0, 0,                                !- X,Y,Z Vertex 3 {m}
  0, 0, 4;                                !- X,Y,Z Vertex 4 {m}

OS:Surface,
  {a9ed66d7-97ab-4bf1-8e9f-f3b1c16baf99}, !- Handle
  Surface 3,                              !- Name
  Wall,                                   !- Surface Type
  ,                                       !- Construction Name
  {23b2e39d-ecbe-4f6a-a76f-8d8de646519f}, !- Space Name
  Surface,                                !- Outside Boundary Condition
  {c6085e41-0aa2-46cb-b6b6-f9c93e188052}, !- Outside Boundary Condition Object
  NoSun,                                  !- Sun Exposure
  NoWind,                                 !- Wind Exposure
  ,                                       !- View Factor to Ground
  ,                                       !- Number of Vertices
  3, 4.07106781186548, 4,                 !- X,Y,Z Vertex 1 {m}
  3, 4.07106781186548, 0,                 !- X,Y,Z Vertex 2 {m}
  0, 7.07106781186548, 0,                 !- X,Y,Z Vertex 3 {m}
  0, 7.07106781186548, 4;                 !- X,Y,Z Vertex 4 {m}

OS:Surface,
  {0d93bc70-dba7-467d-9fe3-e61e789aa2ab}, !- Handle
  Surface 4,                              !- Name
  Wall,                                   !- Surface Type
  ,                                       !- Construction Name
  {23b2e39d-ecbe-4f6a-a76f-8d8de646519f}, !- Space Name
  Surface,                                !- Outside Boundary Condition
  {545f81a8-d69b-46ea-acac-c486ea73ca75}, !- Outside Boundary Condition Object
  NoSun,                                  !- Sun Exposure
  NoWind,                                 !- Wind Exposure
  ,                                       !- View Factor to Ground
  ,                                       !- Number of Vertices
  3, 3, 4,                                !- X,Y,Z Vertex 1 {m}
  3, 3, 0,                                !- X,Y,Z Vertex 2 {m}
  3, 4.07106781186548, 0,                 !- X,Y,Z Vertex 3 {m}
  3, 4.07106781186548, 4;                 !- X,Y,Z Vertex 4 {m}

OS:Surface,
  {f4d68faf-b6f5-4b9a-99a2-3d461217e1d0}, !- Handle
  Surface 5,                              !- Name
  Wall,                                   !- Surface Type
  ,                                       !- Construction Name
  {23b2e39d-ecbe-4f6a-a76f-8d8de646519f}, !- Space Name
  Surface,                                !- Outside Boundary Condition
  {3a68f96b-a8a1-402f-aab1-512b665b5832}, !- Outside Boundary Condition Object
  NoSun,                                  !- Sun Exposure
  NoWind,                                 !- Wind Exposure
  ,                                       !- View Factor to Ground
  ,                                       !- Number of Vertices
  0, 0, 4,                                !- X,Y,Z Vertex 1 {m}
  0, 0, 0,                                !- X,Y,Z Vertex 2 {m}
  3, 3, 0,                                !- X,Y,Z Vertex 3 {m}
  3, 3, 4;                                !- X,Y,Z Vertex 4 {m}

OS:Surface,
  {c7470801-2b2d-4122-ac63-3f9362c9d558}, !- Handle
  Surface 6,                              !- Name
  RoofCeiling,                            !- Surface Type
  ,                                       !- Construction Name
  {23b2e39d-ecbe-4f6a-a76f-8d8de646519f}, !- Space Name
  Outdoors,                               !- Outside Boundary Condition
  ,                                       !- Outside Boundary Condition Object
  SunExposed,                             !- Sun Exposure
  WindExposed,                            !- Wind Exposure
  ,                                       !- View Factor to Ground
  ,                                       !- Number of Vertices
  3, 3, 4,                                !- X,Y,Z Vertex 1 {m}
  3, 4.07106781186548, 4,                 !- X,Y,Z Vertex 2 {m}
  0, 7.07106781186548, 4,                 !- X,Y,Z Vertex 3 {m}
  0, 0, 4;                                !- X,Y,Z Vertex 4 {m}

OS:Space,
  {223b424a-124d-4684-af59-9482ae243490}, !- Handle
  Story 1 North Perimeter Space,          !- Name
  ,                                       !- Space Type Name
  ,                                       !- Default Construction Set Name
  ,                                       !- Default Schedule Set Name
  -0,                                     !- Direction of Relative North {deg}
  3,                                      !- X Origin {m}
  4.07106781186548,                       !- Y Origin {m}
  0,                                      !- Z Origin {m}
  {b49b4da5-a672-48bb-906f-2b5be86badbc}, !- Building Story Name
  {7715a017-bf70-4db6-ab5b-5609b5ca3490}; !- Thermal Zone Name

OS:Surface,
  {7b02d757-ced5-4088-8c3c-854852b066c5}, !- Handle
  Surface 7,                              !- Name
  Floor,                                  !- Surface Type
  ,                                       !- Construction Name
  {223b424a-124d-4684-af59-9482ae243490}, !- Space Name
  Ground,                                 !- Outside Boundary Condition
  ,                                       !- Outside Boundary Condition Object
  NoSun,                                  !- Sun Exposure
  NoWind,                                 !- Wind Exposure
  ,                                       !- View Factor to Ground
  ,                                       !- Number of Vertices
  -3, 3, 0,                               !- X,Y,Z Vertex 1 {m}
  4.07106781186548, 3, 0,                 !- X,Y,Z Vertex 2 {m}
  1.07106781186548, 4.44089209850063e-15, 0, !- X,Y,Z Vertex 3 {m}
  0, 4.44089209850063e-15, 0;             !- X,Y,Z Vertex 4 {m}

OS:Surface,
  {16fe8435-1aa6-487f-ad87-3859af3f8969}, !- Handle
  Surface 8,                              !- Name
  Wall,                                   !- Surface Type
  ,                                       !- Construction Name
  {223b424a-124d-4684-af59-9482ae243490}, !- Space Name
  Outdoors,                               !- Outside Boundary Condition
  ,                                       !- Outside Boundary Condition Object
  SunExposed,                             !- Sun Exposure
  WindExposed,                            !- Wind Exposure
  ,                                       !- View Factor to Ground
  ,                                       !- Number of Vertices
  4.07106781186548, 3, 4,                 !- X,Y,Z Vertex 1 {m}
  4.07106781186548, 3, 0,                 !- X,Y,Z Vertex 2 {m}
  -3, 3, 0,                               !- X,Y,Z Vertex 3 {m}
  -3, 3, 4;                               !- X,Y,Z Vertex 4 {m}

OS:Surface,
  {c67a8e70-e13c-42ca-8910-f12685a72a9e}, !- Handle
  Surface 9,                              !- Name
  Wall,                                   !- Surface Type
  ,                                       !- Construction Name
  {223b424a-124d-4684-af59-9482ae243490}, !- Space Name
  Surface,                                !- Outside Boundary Condition
  {fa0a52ef-223d-4b3b-8268-8024d8755c5b}, !- Outside Boundary Condition Object
  NoSun,                                  !- Sun Exposure
  NoWind,                                 !- Wind Exposure
  ,                                       !- View Factor to Ground
  ,                                       !- Number of Vertices
  1.07106781186548, 4.44089209850063e-15, 4, !- X,Y,Z Vertex 1 {m}
  1.07106781186548, 4.44089209850063e-15, 0, !- X,Y,Z Vertex 2 {m}
  4.07106781186548, 3, 0,                 !- X,Y,Z Vertex 3 {m}
  4.07106781186548, 3, 4;                 !- X,Y,Z Vertex 4 {m}

OS:Surface,
  {84d609c9-3370-4d4c-b593-b0cd624bb042}, !- Handle
  Surface 10,                             !- Name
  Wall,                                   !- Surface Type
  ,                                       !- Construction Name
  {223b424a-124d-4684-af59-9482ae243490}, !- Space Name
  Surface,                                !- Outside Boundary Condition
  {7c0c3f99-d0fe-486f-bd7c-60cc3c8c3be2}, !- Outside Boundary Condition Object
  NoSun,                                  !- Sun Exposure
  NoWind,                                 !- Wind Exposure
  ,                                       !- View Factor to Ground
  ,                                       !- Number of Vertices
  0, 4.44089209850063e-15, 4,             !- X,Y,Z Vertex 1 {m}
  0, 4.44089209850063e-15, 0,             !- X,Y,Z Vertex 2 {m}
  1.07106781186548, 4.44089209850063e-15, 0, !- X,Y,Z Vertex 3 {m}
  1.07106781186548, 4.44089209850063e-15, 4; !- X,Y,Z Vertex 4 {m}

OS:Surface,
  {c6085e41-0aa2-46cb-b6b6-f9c93e188052}, !- Handle
  Surface 11,                             !- Name
  Wall,                                   !- Surface Type
  ,                                       !- Construction Name
  {223b424a-124d-4684-af59-9482ae243490}, !- Space Name
  Surface,                                !- Outside Boundary Condition
  {a9ed66d7-97ab-4bf1-8e9f-f3b1c16baf99}, !- Outside Boundary Condition Object
  NoSun,                                  !- Sun Exposure
  NoWind,                                 !- Wind Exposure
  ,                                       !- View Factor to Ground
  ,                                       !- Number of Vertices
  -3, 3, 4,                               !- X,Y,Z Vertex 1 {m}
  -3, 3, 0,                               !- X,Y,Z Vertex 2 {m}
  0, 4.44089209850063e-15, 0,             !- X,Y,Z Vertex 3 {m}
  0, 4.44089209850063e-15, 4;             !- X,Y,Z Vertex 4 {m}

OS:Surface,
  {35d9b365-207c-461a-aefc-5d16a95f75b4}, !- Handle
  Surface 12,                             !- Name
  RoofCeiling,                            !- Surface Type
  ,                                       !- Construction Name
  {223b424a-124d-4684-af59-9482ae243490}, !- Space Name
  Outdoors,                               !- Outside Boundary Condition
  ,                                       !- Outside Boundary Condition Object
  SunExposed,                             !- Sun Exposure
  WindExposed,                            !- Wind Exposure
  ,                                       !- View Factor to Ground
  ,                                       !- Number of Vertices
  0, 4.44089209850063e-15, 4,             !- X,Y,Z Vertex 1 {m}
  1.07106781186548, 4.44089209850063e-15, 4, !- X,Y,Z Vertex 2 {m}
  4.07106781186548, 3, 4,                 !- X,Y,Z Vertex 3 {m}
  -3, 3, 4;                               !- X,Y,Z Vertex 4 {m}

OS:Space,
  {1869c9af-efcb-46fe-88b8-7768785b76d7}, !- Handle
  Story 1 East Perimeter Space,           !- Name
  ,                                       !- Space Type Name
  ,                                       !- Default Construction Set Name
  ,                                       !- Default Schedule Set Name
  -0,                                     !- Direction of Relative North {deg}
  4.07106781186548,                       !- X Origin {m}
  3,                                      !- Y Origin {m}
  0,                                      !- Z Origin {m}
  {b49b4da5-a672-48bb-906f-2b5be86badbc}, !- Building Story Name
  {2f031461-eeaf-4cde-bf87-21787693758c}; !- Thermal Zone Name

OS:Surface,
  {e857e981-d54d-4a70-8df3-eb685dce9249}, !- Handle
  Surface 13,                             !- Name
  Floor,                                  !- Surface Type
  ,                                       !- Construction Name
  {1869c9af-efcb-46fe-88b8-7768785b76d7}, !- Space Name
  Ground,                                 !- Outside Boundary Condition
  ,                                       !- Outside Boundary Condition Object
  NoSun,                                  !- Sun Exposure
  NoWind,                                 !- Wind Exposure
  ,                                       !- View Factor to Ground
  ,                                       !- Number of Vertices
  3, 4.07106781186548, 0,                 !- X,Y,Z Vertex 1 {m}
  3, -3, 0,                               !- X,Y,Z Vertex 2 {m}
  4.44089209850063e-15, 0, 0,             !- X,Y,Z Vertex 3 {m}
  4.44089209850063e-15, 1.07106781186548, 0; !- X,Y,Z Vertex 4 {m}

OS:Surface,
  {f5b8bb2c-a72b-4d83-82d3-cc38d5ed39d7}, !- Handle
  Surface 14,                             !- Name
  Wall,                                   !- Surface Type
  ,                                       !- Construction Name
  {1869c9af-efcb-46fe-88b8-7768785b76d7}, !- Space Name
  Outdoors,                               !- Outside Boundary Condition
  ,                                       !- Outside Boundary Condition Object
  SunExposed,                             !- Sun Exposure
  WindExposed,                            !- Wind Exposure
  ,                                       !- View Factor to Ground
  ,                                       !- Number of Vertices
  3, -3, 4,                               !- X,Y,Z Vertex 1 {m}
  3, -3, 0,                               !- X,Y,Z Vertex 2 {m}
  3, 4.07106781186548, 0,                 !- X,Y,Z Vertex 3 {m}
  3, 4.07106781186548, 4;                 !- X,Y,Z Vertex 4 {m}

OS:Surface,
  {f037bf5a-1f42-4bac-be17-a64d6c5bbb6d}, !- Handle
  Surface 15,                             !- Name
  Wall,                                   !- Surface Type
  ,                                       !- Construction Name
  {1869c9af-efcb-46fe-88b8-7768785b76d7}, !- Space Name
  Surface,                                !- Outside Boundary Condition
  {0973aee3-8b0c-4777-9d92-c7f5059efdba}, !- Outside Boundary Condition Object
  NoSun,                                  !- Sun Exposure
  NoWind,                                 !- Wind Exposure
  ,                                       !- View Factor to Ground
  ,                                       !- Number of Vertices
  4.44089209850063e-15, 0, 4,             !- X,Y,Z Vertex 1 {m}
  4.44089209850063e-15, 0, 0,             !- X,Y,Z Vertex 2 {m}
  3, -3, 0,                               !- X,Y,Z Vertex 3 {m}
  3, -3, 4;                               !- X,Y,Z Vertex 4 {m}

OS:Surface,
  {99a87bcd-0cf6-4da4-9449-1b135d3d495c}, !- Handle
  Surface 16,                             !- Name
  Wall,                                   !- Surface Type
  ,                                       !- Construction Name
  {1869c9af-efcb-46fe-88b8-7768785b76d7}, !- Space Name
  Surface,                                !- Outside Boundary Condition
  {41068b42-fde6-4b63-b991-cf3c823f6e5e}, !- Outside Boundary Condition Object
  NoSun,                                  !- Sun Exposure
  NoWind,                                 !- Wind Exposure
  ,                                       !- View Factor to Ground
  ,                                       !- Number of Vertices
  4.44089209850063e-15, 1.07106781186548, 4, !- X,Y,Z Vertex 1 {m}
  4.44089209850063e-15, 1.07106781186548, 0, !- X,Y,Z Vertex 2 {m}
  4.44089209850063e-15, 0, 0,             !- X,Y,Z Vertex 3 {m}
  4.44089209850063e-15, 0, 4;             !- X,Y,Z Vertex 4 {m}

OS:Surface,
  {fa0a52ef-223d-4b3b-8268-8024d8755c5b}, !- Handle
  Surface 17,                             !- Name
  Wall,                                   !- Surface Type
  ,                                       !- Construction Name
  {1869c9af-efcb-46fe-88b8-7768785b76d7}, !- Space Name
  Surface,                                !- Outside Boundary Condition
  {c67a8e70-e13c-42ca-8910-f12685a72a9e}, !- Outside Boundary Condition Object
  NoSun,                                  !- Sun Exposure
  NoWind,                                 !- Wind Exposure
  ,                                       !- View Factor to Ground
  ,                                       !- Number of Vertices
  3, 4.07106781186548, 4,                 !- X,Y,Z Vertex 1 {m}
  3, 4.07106781186548, 0,                 !- X,Y,Z Vertex 2 {m}
  4.44089209850063e-15, 1.07106781186548, 0, !- X,Y,Z Vertex 3 {m}
  4.44089209850063e-15, 1.07106781186548, 4; !- X,Y,Z Vertex 4 {m}

OS:Surface,
  {eaad3600-29cc-4a54-8cdf-a1d4866908a5}, !- Handle
  Surface 18,                             !- Name
  RoofCeiling,                            !- Surface Type
  ,                                       !- Construction Name
  {1869c9af-efcb-46fe-88b8-7768785b76d7}, !- Space Name
  Outdoors,                               !- Outside Boundary Condition
  ,                                       !- Outside Boundary Condition Object
  SunExposed,                             !- Sun Exposure
  WindExposed,                            !- Wind Exposure
  ,                                       !- View Factor to Ground
  ,                                       !- Number of Vertices
  4.44089209850063e-15, 1.07106781186548, 4, !- X,Y,Z Vertex 1 {m}
  4.44089209850063e-15, 0, 4,             !- X,Y,Z Vertex 2 {m}
  3, -3, 4,                               !- X,Y,Z Vertex 3 {m}
  3, 4.07106781186548, 4;                 !- X,Y,Z Vertex 4 {m}

OS:Space,
  {aec8477c-b947-4ef2-83ad-cd3788af85c0}, !- Handle
  Story 1 South Perimeter Space,          !- Name
  ,                                       !- Space Type Name
  ,                                       !- Default Construction Set Name
  ,                                       !- Default Schedule Set Name
  -0,                                     !- Direction of Relative North {deg}
  0,                                      !- X Origin {m}
  0,                                      !- Y Origin {m}
  0,                                      !- Z Origin {m}
  {b49b4da5-a672-48bb-906f-2b5be86badbc}, !- Building Story Name
  {c0b87d9f-8143-4560-9467-0877a7a69d2d}; !- Thermal Zone Name

OS:Surface,
  {ec5c4aa8-f3d2-4716-a6c0-73c9cdd9c2bc}, !- Handle
  Surface 19,                             !- Name
  Floor,                                  !- Surface Type
  ,                                       !- Construction Name
  {aec8477c-b947-4ef2-83ad-cd3788af85c0}, !- Space Name
  Ground,                                 !- Outside Boundary Condition
  ,                                       !- Outside Boundary Condition Object
  NoSun,                                  !- Sun Exposure
  NoWind,                                 !- Wind Exposure
  ,                                       !- View Factor to Ground
  ,                                       !- Number of Vertices
  7.07106781186548, 0, 0,                 !- X,Y,Z Vertex 1 {m}
  0, 0, 0,                                !- X,Y,Z Vertex 2 {m}
  3, 3, 0,                                !- X,Y,Z Vertex 3 {m}
  4.07106781186548, 3, 0;                 !- X,Y,Z Vertex 4 {m}

OS:Surface,
  {855ac73c-7414-40aa-94b8-f274b101e81c}, !- Handle
  Surface 20,                             !- Name
  Wall,                                   !- Surface Type
  ,                                       !- Construction Name
  {aec8477c-b947-4ef2-83ad-cd3788af85c0}, !- Space Name
  Outdoors,                               !- Outside Boundary Condition
  ,                                       !- Outside Boundary Condition Object
  SunExposed,                             !- Sun Exposure
  WindExposed,                            !- Wind Exposure
  ,                                       !- View Factor to Ground
  ,                                       !- Number of Vertices
  0, 0, 4,                                !- X,Y,Z Vertex 1 {m}
  0, 0, 0,                                !- X,Y,Z Vertex 2 {m}
  7.07106781186548, 0, 0,                 !- X,Y,Z Vertex 3 {m}
  7.07106781186548, 0, 4;                 !- X,Y,Z Vertex 4 {m}

OS:Surface,
  {3a68f96b-a8a1-402f-aab1-512b665b5832}, !- Handle
  Surface 21,                             !- Name
  Wall,                                   !- Surface Type
  ,                                       !- Construction Name
  {aec8477c-b947-4ef2-83ad-cd3788af85c0}, !- Space Name
  Surface,                                !- Outside Boundary Condition
  {f4d68faf-b6f5-4b9a-99a2-3d461217e1d0}, !- Outside Boundary Condition Object
  NoSun,                                  !- Sun Exposure
  NoWind,                                 !- Wind Exposure
  ,                                       !- View Factor to Ground
  ,                                       !- Number of Vertices
  3, 3, 4,                                !- X,Y,Z Vertex 1 {m}
  3, 3, 0,                                !- X,Y,Z Vertex 2 {m}
  0, 0, 0,                                !- X,Y,Z Vertex 3 {m}
  0, 0, 4;                                !- X,Y,Z Vertex 4 {m}

OS:Surface,
  {189a0702-6ac7-442d-ac8a-0b30ceaecbf1}, !- Handle
  Surface 22,                             !- Name
  Wall,                                   !- Surface Type
  ,                                       !- Construction Name
  {aec8477c-b947-4ef2-83ad-cd3788af85c0}, !- Space Name
  Surface,                                !- Outside Boundary Condition
  {79569904-d144-4341-a1b3-27c81ffe1443}, !- Outside Boundary Condition Object
  NoSun,                                  !- Sun Exposure
  NoWind,                                 !- Wind Exposure
  ,                                       !- View Factor to Ground
  ,                                       !- Number of Vertices
  4.07106781186548, 3, 4,                 !- X,Y,Z Vertex 1 {m}
  4.07106781186548, 3, 0,                 !- X,Y,Z Vertex 2 {m}
  3, 3, 0,                                !- X,Y,Z Vertex 3 {m}
  3, 3, 4;                                !- X,Y,Z Vertex 4 {m}

OS:Surface,
  {0973aee3-8b0c-4777-9d92-c7f5059efdba}, !- Handle
  Surface 23,                             !- Name
  Wall,                                   !- Surface Type
  ,                                       !- Construction Name
  {aec8477c-b947-4ef2-83ad-cd3788af85c0}, !- Space Name
  Surface,                                !- Outside Boundary Condition
  {f037bf5a-1f42-4bac-be17-a64d6c5bbb6d}, !- Outside Boundary Condition Object
  NoSun,                                  !- Sun Exposure
  NoWind,                                 !- Wind Exposure
  ,                                       !- View Factor to Ground
  ,                                       !- Number of Vertices
  7.07106781186548, 0, 4,                 !- X,Y,Z Vertex 1 {m}
  7.07106781186548, 0, 0,                 !- X,Y,Z Vertex 2 {m}
  4.07106781186548, 3, 0,                 !- X,Y,Z Vertex 3 {m}
  4.07106781186548, 3, 4;                 !- X,Y,Z Vertex 4 {m}

OS:Surface,
  {045919a6-fe33-4347-b806-3863384c1d3f}, !- Handle
  Surface 24,                             !- Name
  RoofCeiling,                            !- Surface Type
  ,                                       !- Construction Name
  {aec8477c-b947-4ef2-83ad-cd3788af85c0}, !- Space Name
  Outdoors,                               !- Outside Boundary Condition
  ,                                       !- Outside Boundary Condition Object
  SunExposed,                             !- Sun Exposure
  WindExposed,                            !- Wind Exposure
  ,                                       !- View Factor to Ground
  ,                                       !- Number of Vertices
  4.07106781186548, 3, 4,                 !- X,Y,Z Vertex 1 {m}
  3, 3, 4,                                !- X,Y,Z Vertex 2 {m}
  0, 0, 4,                                !- X,Y,Z Vertex 3 {m}
  7.07106781186548, 0, 4;                 !- X,Y,Z Vertex 4 {m}

OS:Space,
  {c642ad9a-a948-4dbd-bea6-c4d50251e526}, !- Handle
  Story 1 Core Space,                     !- Name
  ,                                       !- Space Type Name
  ,                                       !- Default Construction Set Name
  ,                                       !- Default Schedule Set Name
  -0,                                     !- Direction of Relative North {deg}
  3,                                      !- X Origin {m}
  3,                                      !- Y Origin {m}
  0,                                      !- Z Origin {m}
  {b49b4da5-a672-48bb-906f-2b5be86badbc}, !- Building Story Name
  {4090e883-7c40-4fc8-bc80-64a72d7b22e9}; !- Thermal Zone Name

OS:Surface,
  {78ab0f6e-fdbe-4386-be8d-3cdd126d2a90}, !- Handle
  Surface 25,                             !- Name
  Floor,                                  !- Surface Type
  ,                                       !- Construction Name
  {c642ad9a-a948-4dbd-bea6-c4d50251e526}, !- Space Name
  Ground,                                 !- Outside Boundary Condition
  ,                                       !- Outside Boundary Condition Object
  NoSun,                                  !- Sun Exposure
  NoWind,                                 !- Wind Exposure
  ,                                       !- View Factor to Ground
  ,                                       !- Number of Vertices
  0, 0, 0,                                !- X,Y,Z Vertex 1 {m}
  0, 1.07106781186548, 0,                 !- X,Y,Z Vertex 2 {m}
  1.07106781186548, 1.07106781186548, 0,  !- X,Y,Z Vertex 3 {m}
  1.07106781186548, 0, 0;                 !- X,Y,Z Vertex 4 {m}

OS:Surface,
  {545f81a8-d69b-46ea-acac-c486ea73ca75}, !- Handle
  Surface 26,                             !- Name
  Wall,                                   !- Surface Type
  ,                                       !- Construction Name
  {c642ad9a-a948-4dbd-bea6-c4d50251e526}, !- Space Name
  Surface,                                !- Outside Boundary Condition
  {0d93bc70-dba7-467d-9fe3-e61e789aa2ab}, !- Outside Boundary Condition Object
  NoSun,                                  !- Sun Exposure
  NoWind,                                 !- Wind Exposure
  ,                                       !- View Factor to Ground
  ,                                       !- Number of Vertices
  0, 1.07106781186548, 4,                 !- X,Y,Z Vertex 1 {m}
  0, 1.07106781186548, 0,                 !- X,Y,Z Vertex 2 {m}
  0, 0, 0,                                !- X,Y,Z Vertex 3 {m}
  0, 0, 4;                                !- X,Y,Z Vertex 4 {m}

OS:Surface,
  {7c0c3f99-d0fe-486f-bd7c-60cc3c8c3be2}, !- Handle
  Surface 27,                             !- Name
  Wall,                                   !- Surface Type
  ,                                       !- Construction Name
  {c642ad9a-a948-4dbd-bea6-c4d50251e526}, !- Space Name
  Surface,                                !- Outside Boundary Condition
  {84d609c9-3370-4d4c-b593-b0cd624bb042}, !- Outside Boundary Condition Object
  NoSun,                                  !- Sun Exposure
  NoWind,                                 !- Wind Exposure
  ,                                       !- View Factor to Ground
  ,                                       !- Number of Vertices
  1.07106781186548, 1.07106781186548, 4,  !- X,Y,Z Vertex 1 {m}
  1.07106781186548, 1.07106781186548, 0,  !- X,Y,Z Vertex 2 {m}
  0, 1.07106781186548, 0,                 !- X,Y,Z Vertex 3 {m}
  0, 1.07106781186548, 4;                 !- X,Y,Z Vertex 4 {m}

OS:Surface,
  {41068b42-fde6-4b63-b991-cf3c823f6e5e}, !- Handle
  Surface 28,                             !- Name
  Wall,                                   !- Surface Type
  ,                                       !- Construction Name