
OS:Version,
  {3be60802-906a-49a0-b56b-bd0b7d22baa6}, !- Handle
  0.10.0;                                 !- Version Identifier

OS:BuildingStory,
  {52a7a406-5736-423c-a9ab-d22ba9f6f1ac}, !- Handle
  Story 1,                                !- Name
  0,                                      !- Nominal Z Coordinate {m}
  4,                                      !- Nominal Floor to Floor Height {m}
  ,                                       !- Default Construction Set Name
  ,                                       !- Default Schedule Set Name
  ;                                       !- Group Rendering Name

OS:Space,
  {177754e8-b00f-4aa3-a282-49e7a3274ddd}, !- Handle
  Story 1 West Perimeter Space,           !- Name
  ,                                       !- Space Type Name
  ,                                       !- Default Construction Set Name
  ,                                       !- Default Schedule Set Name
  -0,                                     !- Direction of Relative North {deg}
  0,                                      !- X Origin {m}
  0,                                      !- Y Origin {m}
  0,                                      !- Z Origin {m}
  {52a7a406-5736-423c-a9ab-d22ba9f6f1ac}, !- Building Story Name
  {291b0a88-0f5e-4394-8e77-be17a2918904}; !- Thermal Zone Name

OS:Surface,
  {44ed091d-7a41-4868-8878-41e0ea448d4a}, !- Handle
  Surface 1,                              !- Name
  Floor,                                  !- Surface Type
  ,                                       !- Construction Name
  {177754e8-b00f-4aa3-a282-49e7a3274ddd}, !- Space Name
  Ground,                                 !- Outside Boundary Condition
  ,                                       !- Outside Boundary Condition Object
  NoSun,                                  !- Sun Exposure
  NoWind,                                 !- Wind Exposure
  ,                                       !- View Factor to Ground
  ,                                       !- Number of Vertices
  0, 0, 0,                                !- X,Y,Z Vertex 1 {m}
  0, 20, 0,                               !- X,Y,Z Vertex 2 {m}
  3, 17, 0,                               !- X,Y,Z Vertex 3 {m}
  3, 3, 0;                                !- X,Y,Z Vertex 4 {m}

OS:Surface,
  {4f3379cb-aa96-4746-9756-000827fabba9}, !- Handle
  Surface 2,                              !- Name
  Wall,                                   !- Surface Type
  ,                                       !- Construction Name
  {177754e8-b00f-4aa3-a282-49e7a3274ddd}, !- Space Name
  Outdoors,                               !- Outside Boundary Condition
  ,                                       !- Outside Boundary Condition Object
  SunExposed,                             !- Sun Exposure
  WindExposed,                            !- Wind Exposure
  ,                                       !- View Factor to Ground
  ,                                       !- Number of Vertices
  0, 20, 4,                               !- X,Y,Z Vertex 1 {m}
  0, 20, 0,                               !- X,Y,Z Vertex 2 {m}
  0, 0, 0,                                !- X,Y,Z Vertex 3 {m}
  0, 0, 4;                                !- X,Y,Z Vertex 4 {m}

OS:Surface,
  {11e8c331-9bfc-46f7-b7e0-8b9c1e210db0}, !- Handle
  Surface 3,                              !- Name
  Wall,                                   !- Surface Type
  ,                                       !- Construction Name
  {177754e8-b00f-4aa3-a282-49e7a3274ddd}, !- Space Name
  Surface,                                !- Outside Boundary Condition
  {2f81db48-c127-43b8-8d5d-f72a0c5456f9}, !- Outside Boundary Condition Object
  NoSun,                                  !- Sun Exposure
  NoWind,                                 !- Wind Exposure
  ,                                       !- View Factor to Ground
  ,                                       !- Number of Vertices
  3, 17, 4,                               !- X,Y,Z Vertex 1 {m}
  3, 17, 0,                               !- X,Y,Z Vertex 2 {m}
  0, 20, 0,                               !- X,Y,Z Vertex 3 {m}
  0, 20, 4;                               !- X,Y,Z Vertex 4 {m}

OS:Surface,
  {403394c7-c9a6-475b-8ae0-55a69f81d6d2}, !- Handle
  Surface 4,                              !- Name
  Wall,                                   !- Surface Type
  ,                                       !- Construction Name
  {177754e8-b00f-4aa3-a282-49e7a3274ddd}, !- Space Name
  Surface,                                !- Outside Boundary Condition
  {725053b0-967b-4989-a1c2-41cd632fba97}, !- Outside Boundary Condition Object
  NoSun,                                  !- Sun Exposure
  NoWind,                                 !- Wind Exposure
  ,                                       !- View Factor to Ground
  ,                                       !- Number of Vertices
  3, 3, 4,                                !- X,Y,Z Vertex 1 {m}
  3, 3, 0,                                !- X,Y,Z Vertex 2 {m}
  3, 17, 0,                               !- X,Y,Z Vertex 3 {m}
  3, 17, 4;                               !- X,Y,Z Vertex 4 {m}

OS:Surface,
  {86f05ded-5d7b-4798-9702-96c174cf934c}, !- Handle
  Surface 5,                              !- Name
  Wall,                                   !- Surface Type
  ,                                       !- Construction Name
  {177754e8-b00f-4aa3-a282-49e7a3274ddd}, !- Space Name
  Surface,                                !- Outside Boundary Condition
  {1fe3ad47-8350-4cd0-bd84-b3fc17c8c0e0}, !- Outside Boundary Condition Object
  NoSun,                                  !- Sun Exposure
  NoWind,                                 !- Wind Exposure
  ,                                       !- View Factor to Ground
  ,                                       !- Number of Vertices
  0, 0, 4,                                !- X,Y,Z Vertex 1 {m}
  0, 0, 0,                                !- X,Y,Z Vertex 2 {m}
  3, 3, 0,                                !- X,Y,Z Vertex 3 {m}
  3, 3, 4;                                !- X,Y,Z Vertex 4 {m}

OS:Surface,
  {f97b5e12-3f19-4726-8c9b-d3d70d425bd7}, !- Handle
  Surface 6,                              !- Name
  RoofCeiling,                            !- Surface Type
  ,                                       !- Construction Name
  {177754e8-b00f-4aa3-a282-49e7a3274ddd}, !- Space Name
  Surface,                                !- Outside Boundary Condition
  {532bddfc-8e08-4b9c-a3e9-a86824e956d7}, !- Outside Boundary Condition Object
  NoSun,                                  !- Sun Exposure
  NoWind,                                 !- Wind Exposure
  ,                                       !- View Factor to Ground
  ,                                       !- Number of Vertices
  3, 3, 4,                                !- X,Y,Z Vertex 1 {m}
  3, 17, 4,                               !- X,Y,Z Vertex 2 {m}
  0, 20, 4,                               !- X,Y,Z Vertex 3 {m}
  0, 0, 4;                                !- X,Y,Z Vertex 4 {m}

OS:Space,
  {f3da79a0-040f-4473-af36-d586bfd544f4}, !- Handle
  Story 1 North Perimeter Space,          !- Name
  ,                                       !- Space Type Name
  ,                                       !- Default Construction Set Name
  ,                                       !- Default Schedule Set Name
  -0,                                     !- Direction of Relative North {deg}
  3,                                      !- X Origin {m}
  17,                                     !- Y Origin {m}
  0,                                      !- Z Origin {m}
  {52a7a406-5736-423c-a9ab-d22ba9f6f1ac}, !- Building Story Name
  {9fe1a840-dc82-46f5-8c9f-27b7a25279c2}; !- Thermal Zone Name

OS:Surface,
  {05a2cc10-ed91-489b-ad1a-b6078f5eb6bc}, !- Handle
  Surface 7,                              !- Name
  Floor,                                  !- Surface Type
  ,                                       !- Construction Name
  {f3da79a0-040f-4473-af36-d586bfd544f4}, !- Space Name
  Ground,                                 !- Outside Boundary Condition
  ,                                       !- Outside Boundary Condition Object
  NoSun,                                  !- Sun Exposure
  NoWind,                                 !- Wind Exposure
  ,                                       !- View Factor to Ground
  ,                                       !- Number of Vertices
  -3, 3, 0,                               !- X,Y,Z Vertex 1 {m}
  17, 3, 0,                               !- X,Y,Z Vertex 2 {m}
  14, 0, 0,                               !- X,Y,Z Vertex 3 {m}
  0, 0, 0;                                !- X,Y,Z Vertex 4 {m}

OS:Surface,
  {9e088db6-cb2c-493d-a0c2-0e7325413758}, !- Handle
  Surface 8,                              !- Name
  Wall,                                   !- Surface Type
  ,                                       !- Construction Name
  {f3da79a0-040f-4473-af36-d586bfd544f4}, !- Space Name
  Outdoors,                               !- Outside Boundary Condition
  ,                                       !- Outside Boundary Condition Object
  SunExposed,                             !- Sun Exposure
  WindExposed,                            !- Wind Exposure
  ,                                       !- View Factor to Ground
  ,                                       !- Number of Vertices
  17, 3, 4,                               !- X,Y,Z Vertex 1 {m}
  17, 3, 0,                               !- X,Y,Z Vertex 2 {m}
  -3, 3, 0,                               !- X,Y,Z Vertex 3 {m}
  -3, 3, 4;                               !- X,Y,Z Vertex 4 {m}

OS:Surface,
  {6198afb2-1261-414e-8cc5-db7093b643f0}, !- Handle
  Surface 9,                              !- Name
  Wall,                                   !- Surface Type
  ,                                       !- Construction Name
  {f3da79a0-040f-4473-af36-d586bfd544f4}, !- Space Name
  Surface,                                !- Outside Boundary Condition
  {951c9e3f-38d4-4f60-9930-29c06be91b29}, !- Outside Boundary Condition Object
  NoSun,                                  !- Sun Exposure
  NoWind,                                 !- Wind Exposure
  ,                                       !- View Factor to Ground
  ,                                       !- Number of Vertices
  14, 0, 4,                               !- X,Y,Z Vertex 1 {m}
  14, 0, 0,                               !- X,Y,Z Vertex 2 {m}
  17, 3, 0,                               !- X,Y,Z Vertex 3 {m}
  17, 3, 4;                               !- X,Y,Z Vertex 4 {m}

OS:Surface,
  {6e92bc00-b3e7-4f76-b2ff-ff5139df3953}, !- Handle
  Surface 10,                             !- Name
  Wall,                                   !- Surface Type
  ,                                       !- Construction Name
  {f3da79a0-040f-4473-af36-d586bfd544f4}, !- Space Name
  Surface,                                !- Outside Boundary Condition
  {3bc21b3e-40cf-4bde-a302-69aa24b7db55}, !- Outside Boundary Condition Object
  NoSun,                                  !- Sun Exposure
  NoWind,                                 !- Wind Exposure
  ,                                       !- View Factor to Ground
  ,                                       !- Number of Vertices
  0, 0, 4,                                !- X,Y,Z Vertex 1 {m}
  0, 0, 0,                                !- X,Y,Z Vertex 2 {m}
  14, 0, 0,                               !- X,Y,Z Vertex 3 {m}
  14, 0, 4;                               !- X,Y,Z Vertex 4 {m}

OS:Surface,
  {2f81db48-c127-43b8-8d5d-f72a0c5456f9}, !- Handle
  Surface 11,                             !- Name
  Wall,                                   !- Surface Type
  ,                                       !- Construction Name
  {f3da79a0-040f-4473-af36-d586bfd544f4}, !- Space Name
  Surface,                                !- Outside Boundary Condition
  {11e8c331-9bfc-46f7-b7e0-8b9c1e210db0}, !- Outside Boundary Condition Object
  NoSun,                                  !- Sun Exposure
  NoWind,                                 !- Wind Exposure
  ,                                       !- View Factor to Ground
  ,                                       !- Number of Vertices
  -3, 3, 4,                               !- X,Y,Z Vertex 1 {m}
  -3, 3, 0,                               !- X,Y,Z Vertex 2 {m}
  0, 0, 0,                                !- X,Y,Z Vertex 3 {m}
  0, 0, 4;                                !- X,Y,Z Vertex 4 {m}

OS:Surface,
  {6911e7ae-91b4-4e9b-aeb2-6264f401af06}, !- Handle
  Surface 12,                             !- Name
  RoofCeiling,                            !- Surface Type
  ,                                       !- Construction Name
  {f3da79a0-040f-4473-af36-d586bfd544f4}, !- Space Name
  Surface,                                !- Outside Boundary Condition
  {e761ddf2-725a-4a68-9e3b-461d7a9efc13}, !- Outside Boundary Condition Object
  NoSun,                                  !- Sun Exposure
  NoWind,                                 !- Wind Exposure
  ,                                       !- View Factor to Ground
  ,                                       !- Number of Vertices
  0, 0, 4,                                !- X,Y,Z Vertex 1 {m}
  14, 0, 4,                               !- X,Y,Z Vertex 2 {m}
  17, 3, 4,                               !- X,Y,Z Vertex 3 {m}
  -3, 3, 4;                               !- X,Y,Z Vertex 4 {m}

OS:Space,
  {824b278c-ac38-469f-b45a-b9026d03728f}, !- Handle
  Story 1 East Perimeter Space,           !- Name
  ,                                       !- Space Type Name
  ,                                       !- Default Construction Set Name
  ,                                       !- Default Schedule Set Name
  -0,                                     !- Direction of Relative North {deg}
  17,                                     !- X Origin {m}
  3,                                      !- Y Origin {m}
  0,                                      !- Z Origin {m}
  {52a7a406-5736-423c-a9ab-d22ba9f6f1ac}, !- Building Story Name
  {4ffc3718-64fb-488c-8552-70ffd522c81e}; !- Thermal Zone Name

OS:Surface,
  {29a6067b-d80e-4ed1-94ca-90e600c9fa3c}, !- Handle
  Surface 13,                             !- Name
  Floor,                                  !- Surface Type
  ,                                       !- Construction Name
  {824b278c-ac38-469f-b45a-b9026d03728f}, !- Space Name
  Ground,                                 !- Outside Boundary Condition
  ,                                       !- Outside Boundary Condition Object
  NoSun,                                  !- Sun Exposure
  NoWind,                                 !- Wind Exposure
  ,                                       !- View Factor to Ground
  ,                                       !- Number of Vertices
  3, 17, 0,                               !- X,Y,Z Vertex 1 {m}
  3, -3, 0,                               !- X,Y,Z Vertex 2 {m}
  0, 0, 0,                                !- X,Y,Z Vertex 3 {m}
  0, 14, 0;                               !- X,Y,Z Vertex 4 {m}

OS:Surface,
  {966a66c2-74f1-4c85-ba35-e3bfdd5e74a5}, !- Handle
  Surface 14,                             !- Name
  Wall,                                   !- Surface Type
  ,                                       !- Construction Name
  {824b278c-ac38-469f-b45a-b9026d03728f}, !- Space Name
  Outdoors,                               !- Outside Boundary Condition
  ,                                       !- Outside Boundary Condition Object
  SunExposed,                             !- Sun Exposure
  WindExposed,                            !- Wind Exposure
  ,                                       !- View Factor to Ground
  ,                                       !- Number of Vertices
  3, -3, 4,                               !- X,Y,Z Vertex 1 {m}
  3, -3, 0,                               !- X,Y,Z Vertex 2 {m}
  3, 17, 0,                               !- X,Y,Z Vertex 3 {m}
  3, 17, 4;                               !- X,Y,Z Vertex 4 {m}

OS:Surface,
  {e64ea601-4d7b-40bf-947f-eef44bb0b146}, !- Handle
  Surface 15,                             !- Name
  Wall,                                   !- Surface Type
  ,                                       !- Construction Name
  {824b278c-ac38-469f-b45a-b9026d03728f}, !- Space Name
  Surface,                                !- Outside Boundary Condition
  {113187a3-4564-468d-a1b9-f250a88749bb}, !- Outside Boundary Condition Object
  NoSun,                                  !- Sun Exposure
  NoWind,                                 !- Wind Exposure
  ,                                       !- View Factor to Ground
  ,                                       !- Number of Vertices
  0, 0, 4,                                !- X,Y,Z Vertex 1 {m}
  0, 0, 0,                                !- X,Y,Z Vertex 2 {m}
  3, -3, 0,                               !- X,Y,Z Vertex 3 {m}
  3, -3, 4;                               !- X,Y,Z Vertex 4 {m}

OS:Surface,
  {99c252d7-49c9-445b-9bad-e2c1352af30d}, !- Handle
  Surface 16,                             !- Name
  Wall,                                   !- Surface Type
  ,                                       !- Construction Name
  {824b278c-ac38-469f-b45a-b9026d03728f}, !- Space Name
  Surface,                                !- Outside Boundary Condition
  {cb51dd28-df8c-461f-85c7-234eb9c08052}, !- Outside Boundary Condition Object
  NoSun,                                  !- Sun Exposure
  NoWind,                                 !- Wind Exposure
  ,                                       !- View Factor to Ground
  ,                                       !- Number of Vertices
  0, 14, 4,                               !- X,Y,Z Vertex 1 {m}
  0, 14, 0,                               !- X,Y,Z Vertex 2 {m}
  0, 0, 0,                                !- X,Y,Z Vertex 3 {m}
  0, 0, 4;                                !- X,Y,Z Vertex 4 {m}

OS:Surface,
  {951c9e3f-38d4-4f60-9930-29c06be91b29}, !- Handle
  Surface 17,                             !- Name
  Wall,                                   !- Surface Type
  ,                                       !- Construction Name
  {824b278c-ac38-469f-b45a-b9026d03728f}, !- Space Name
  Surface,                                !- Outside Boundary Condition
  {6198afb2-1261-414e-8cc5-db7093b643f0}, !- Outside Boundary Condition Object
  NoSun,                                  !- Sun Exposure
  NoWind,                                 !- Wind Exposure
  ,                                       !- View Factor to Ground
  ,                                       !- Number of Vertices
  3, 17, 4,                               !- X,Y,Z Vertex 1 {m}
  3, 17, 0,                               !- X,Y,Z Vertex 2 {m}
  0, 14, 0,                               !- X,Y,Z Vertex 3 {m}
  0, 14, 4;                               !- X,Y,Z Vertex 4 {m}

OS:Surface,
  {4add3360-615c-44bc-aafc-2af59d28ef59}, !- Handle
  Surface 18,                             !- Name
  RoofCeiling,                            !- Surface Type
  ,                                       !- Construction Name
  {824b278c-ac38-469f-b45a-b9026d03728f}, !- Space Name
  Surface,                                !- Outside Boundary Condition
  {58eaa743-97f5-400a-a5d7-6574c1c5e11b}, !- Outside Boundary Condition Object
  NoSun,                                  !- Sun Exposure
  NoWind,                                 !- Wind Exposure
  ,                                       !- View Factor to Ground
  ,                                       !- Number of Vertices
  0, 14, 4,                               !- X,Y,Z Vertex 1 {m}
  0, 0, 4,                                !- X,Y,Z Vertex 2 {m}
  3, -3, 4,                               !- X,Y,Z Vertex 3 {m}
  3, 17, 4;                               !- X,Y,Z Vertex 4 {m}

OS:Space,
  {84bb7890-c08e-4222-8192-fe014605d6c1}, !- Handle
  Story 1 South Perimeter Space,          !- Name
  ,                                       !- Space Type Name
  ,                                       !- Default Construction Set Name
  ,                                       !- Default Schedule Set Name
  -0,                                     !- Direction of Relative North {deg}
  0,                                      !- X Origin {m}
  0,                                      !- Y Origin {m}
  0,                                      !- Z Origin {m}
  {52a7a406-5736-423c-a9ab-d22ba9f6f1ac}, !- Building Story Name
  {ead58475-109b-4d3a-b96d-1ca1b216218e}; !- Thermal Zone Name

OS:Surface,
  {0885ba82-8e68-429a-bf32-ae5ba14cd30d}, !- Handle
  Surface 19,                             !- Name
  Floor,                                  !- Surface Type
  ,                                       !- Construction Name
  {84bb7890-c08e-4222-8192-fe014605d6c1}, !- Space Name
  Ground,                                 !- Outside Boundary Condition
  ,                                       !- Outside Boundary Condition Object
  NoSun,                                  !- Sun Exposure
  NoWind,                                 !- Wind Exposure
  ,                                       !- View Factor to Ground
  ,                                       !- Number of Vertices
  20, 0, 0,                               !- X,Y,Z Vertex 1 {m}
  0, 0, 0,                                !- X,Y,Z Vertex 2 {m}
  3, 3, 0,                                !- X,Y,Z Vertex 3 {m}
  17, 3, 0;                               !- X,Y,Z Vertex 4 {m}

OS:Surface,
  {8d185fb0-9228-412d-ab6f-033ef33fd72c}, !- Handle
  Surface 20,                             !- Name
  Wall,                                   !- Surface Type
  ,                                       !- Construction Name
  {84bb7890-c08e-4222-8192-fe014605d6c1}, !- Space Name
  Outdoors,                               !- Outside Boundary Condition
  ,                                       !- Outside Boundary Condition Object
  SunExposed,                             !- Sun Exposure
  WindExposed,                            !- Wind Exposure
  ,                                       !- View Factor to Ground
  ,                                       !- Number of Vertices
  0, 0, 4,                                !- X,Y,Z Vertex 1 {m}
  0, 0, 0,                                !- X,Y,Z Vertex 2 {m}
  20, 0, 0,                               !- X,Y,Z Vertex 3 {m}
  20, 0, 4;                               !- X,Y,Z Vertex 4 {m}

OS:Surface,
  {1fe3ad47-8350-4cd0-bd84-b3fc17c8c0e0}, !- Handle
  Surface 21,                             !- Name
  Wall,                                   !- Surface Type
  ,                                       !- Construction Name
  {84bb7890-c08e-4222-8192-fe014605d6c1}, !- Space Name
  Surface,                                !- Outside Boundary Condition
  {86f05ded-5d7b-4798-9702-96c174cf934c}, !- Outside Boundary Condition Object
  NoSun,                                  !- Sun Exposure
  NoWind,                                 !- Wind Exposure
  ,                                       !- View Factor to Ground
  ,                                       !- Number of Vertices
  3, 3, 4,                                !- X,Y,Z Vertex 1 {m}
  3, 3, 0,                                !- X,Y,Z Vertex 2 {m}
  0, 0, 0,                                !- X,Y,Z Vertex 3 {m}
  0, 0, 4;                                !- X,Y,Z Vertex 4 {m}

OS:Surface,
  {a12d532f-55d8-41d9-b77b-0619b62f259a}, !- Handle
  Surface 22,                             !- Name
  Wall,                                   !- Surface Type
  ,                                       !- Construction Name
  {84bb7890-c08e-4222-8192-fe014605d6c1}, !- Space Name
  Surface,                                !- Outside Boundary Condition
  {0ae91809-2420-4465-8967-f831584eccde}, !- Outside Boundary Condition Object
  NoSun,                                  !- Sun Exposure
  NoWind,                                 !- Wind Exposure
  ,                                       !- View Factor to Ground
  ,                                       !- Number of Vertices
  17, 3, 4,                               !- X,Y,Z Vertex 1 {m}
  17, 3, 0,                               !- X,Y,Z Vertex 2 {m}
  3, 3, 0,                                !- X,Y,Z Vertex 3 {m}
  3, 3, 4;                                !- X,Y,Z Vertex 4 {m}

OS:Surface,
  {113187a3-4564-468d-a1b9-f250a88749bb}, !- Handle
  Surface 23,                             !- Name
  Wall,                                   !- Surface Type
  ,                                       !- Construction Name
  {84bb7890-c08e-4222-8192-fe014605d6c1}, !- Space Name
  Surface,                                !- Outside Boundary Condition
  {e64ea601-4d7b-40bf-947f-eef44bb0b146}, !- Outside Boundary Condition Object
  NoSun,                                  !- Sun Exposure
  NoWind,                                 !- Wind Exposure
  ,                                       !- View Factor to Ground
  ,                                       !- Number of Vertices
  20, 0, 4,                               !- X,Y,Z Vertex 1 {m}
  20, 0, 0,                               !- X,Y,Z Vertex 2 {m}
  17, 3, 0,                               !- X,Y,Z Vertex 3 {m}
  17, 3, 4;                               !- X,Y,Z Vertex 4 {m}

OS:Surface,
  {c5c57a1c-e514-4314-935e-0abc81fd44bd}, !- Handle
  Surface 24,                             !- Name
  RoofCeiling,                            !- Surface Type
  ,                                       !- Construction Name
  {84bb7890-c08e-4222-8192-fe014605d6c1}, !- Space Name
  Surface,                                !- Outside Boundary Condition
  {e8ba8568-0aaa-43c9-b88d-91937ae95468}, !- Outside Boundary Condition Object
  NoSun,                                  !- Sun Exposure
  NoWind,                                 !- Wind Exposure
  ,                                       !- View Factor to Ground
  ,                                       !- Number of Vertices
  17, 3, 4,                               !- X,Y,Z Vertex 1 {m}
  3, 3, 4,                                !- X,Y,Z Vertex 2 {m}
  0, 0, 4,                                !- X,Y,Z Vertex 3 {m}
  20, 0, 4;                               !- X,Y,Z Vertex 4 {m}

OS:Space,
  {6b10fc22-84cc-4845-8e85-9905c9ac6e39}, !- Handle
  Story 1 Core Space,                     !- Name
  ,                                       !- Space Type Name
  ,                                       !- Default Construction Set Name
  ,                                       !- Default Schedule Set Name
  -0,                                     !- Direction of Relative North {deg}
  3,                                      !- X Origin {m}
  3,                                      !- Y Origin {m}
  0,                                      !- Z Origin {m}
  {52a7a406-5736-423c-a9ab-d22ba9f6f1ac}, !- Building Story Name
  {b709eb70-7f57-4b03-a9c9-7350af7b9172}; !- Thermal Zone Name

OS:Surface,
  {e1c10126-3325-4eac-b03e-3be5bb29cc30}, !- Handle
  Surface 25,                             !- Name
  Floor,                                  !- Surface Type
  ,                                       !- Construction Name
  {6b10fc22-84cc-4845-8e85-9905c9ac6e39}, !- Space Name
  Ground,                                 !- Outside Boundary Condition
  ,                                       !- Outside Boundary Condition Object
  NoSun,                                  !- Sun Exposure
  NoWind,                                 !- Wind Exposure
  ,                                       !- View Factor to Ground
  ,                                       !- Number of Vertices
  0, 0, 0,                                !- X,Y,Z Vertex 1 {m}
  0, 14, 0,                               !- X,Y,Z Vertex 2 {m}
  14, 14, 0,                              !- X,Y,Z Vertex 3 {m}
  14, 0, 0;                               !- X,Y,Z Vertex 4 {m}

OS:Surface,
  {725053b0-967b-4989-a1c2-41cd632fba97}, !- Handle
  Surface 26,                             !- Name
  Wall,                                   !- Surface Type
  ,                                       !- Construction Name
  {6b10fc22-84cc-4845-8e85-9905c9ac6e39}, !- Space Name
  Surface,                                !- Outside Boundary Condition
  {403394c7-c9a6-475b-8ae0-55a69f81d6d2}, !- Outside Boundary Condition Object
  NoSun,                                  !- Sun Exposure
  NoWind,                                 !- Wind Exposure
  ,                                       !- View Factor to Ground
  ,                                       !- Number of Vertices
  0, 14, 4,                               !- X,Y,Z Vertex 1 {m}
  0, 14, 0,                               !- X,Y,Z Vertex 2 {m}
  0, 0, 0,                                !- X,Y,Z Vertex 3 {m}
  0, 0, 4;                                !- X,Y,Z Vertex 4 {m}

OS:Surface,
  {3bc21b3e-40cf-4bde-a302-69aa24b7db55}, !- Handle
  Surface 27,                             !- Name
  Wall,                                   !- Surface Type
  ,                                       !- Construction Name
  {6b10fc22-84cc-4845-8e85-9905c9ac6e39}, !- Space Name
  Surface,                                !- Outside Boundary Condition
  {6e92bc00-b3e7-4f76-b2ff-ff5139df3953}, !- Outside Boundary Condition Object
  NoSun,                                  !- Sun Exposure
  NoWind,                                 !- Wind Exposure
  ,                                       !- View Factor to Ground
  ,                                       !- Number of Vertices
  14, 14, 4,                              !- X,Y,Z Vertex 1 {m}
  14, 14, 0,                              !- X,Y,Z Vertex 2 {m}
  0, 14, 0,                               !- X,Y,Z Vertex 3 {m}
  0, 14, 4;                               !- X,Y,Z Vertex 4 {m}

OS:Surface,
  {cb51dd28-df8c-461f-85c7-234eb9c08052}, !- Handle
  Surface 28,                             !- Name
  Wall,                                   !- Surface Type
  ,                                       !- Construction Name
  {6b10fc22-84cc-4845-8e85-9905c9ac6e39}, !- Space Name