
OS:Version,
  {84b8d5af-cd40-47a3-93a6-c3ff2d22bae9}, !- Handle
  0.10.0;                                 !- Version Identifier

OS:BuildingStory,
  {2940700b-3773-427a-a83a-2a1ef85edd2b}, !- Handle
  Story 1,                                !- Name
  0,                                      !- Nominal Z Coordinate {m}
  4,                                      !- Nominal Floor to Floor Height {m}
  ,                                       !- Default Construction Set Name
  ,                                       !- Default Schedule Set Name
  ;                                       !- Group Rendering Name

OS:Space,
  {818b1fe6-7968-4e13-be11-242d7be426cc}, !- Handle
  Story 1 West Perimeter Space,           !- Name
  ,                                       !- Space Type Name
  ,                                       !- Default Construction Set Name
  ,                                       !- Default Schedule Set Name
  -0,                                     !- Direction of Relative North {deg}
  0,                                      !- X Origin {m}
  0,                                      !- Y Origin {m}
  0,                                      !- Z Origin {m}
  {2940700b-3773-427a-a83a-2a1ef85edd2b}, !- Building Story Name
  {2d5667f9-e4be-4bfe-aa68-ee82a4e0cec4}; !- Thermal Zone Name

OS:Surface,
  {ef8fce89-8432-4c92-a5d1-ebc17577d7f6}, !- Handle
  Surface 1,                              !- Name
  Floor,                                  !- Surface Type
  ,                                       !- Construction Name
  {818b1fe6-7968-4e13-be11-242d7be426cc}, !- Space Name
  Ground,                                 !- Outside Boundary Condition
  ,                                       !- Outside Boundary Condition Object
  NoSun,                                  !- Sun Exposure
  NoWind,                                 !- Wind Exposure
  ,                                       !- View Factor to Ground
  ,                                       !- Number of Vertices
  0, 0, 0,                                !- X,Y,Z Vertex 1 {m}
  0, 17.2916164657906, 0,                 !- X,Y,Z Vertex 2 {m}
  3, 14.2916164657906, 0,                 !- X,Y,Z Vertex 3 {m}
  3, 3, 0;                                !- X,Y,Z Vertex 4 {m}

OS:Surface,
  {5fc770cd-253b-4289-b522-bc0a3333614b}, !- Handle
  Surface 2,                              !- Name
  Wall,                                   !- Surface Type
  ,                                       !- Construction Name
  {818b1fe6-7968-4e13-be11-242d7be426cc}, !- Space Name
  Outdoors,                               !- Outside Boundary Condition
  ,                                       !- Outside Boundary Condition Object
  SunExposed,                             !- Sun Exposure
  WindExposed,                            !- Wind Exposure
  ,                                       !- View Factor to Ground
  ,                                       !- Number of Vertices
  0, 17.2916164657906, 4,                 !- X,Y,Z Vertex 1 {m}
  0, 17.2916164657906, 0,                 !- X,Y,Z Vertex 2 {m}
  0, 0, 0,                                !- X,Y,Z Vertex 3 {m}
  0, 0, 4;                                !- X,Y,Z Vertex 4 {m}

OS:Surface,
  {ed37c67f-df1d-4bca-9d99-a445976c5f67}, !- Handle
  Surface 3,                              !- Name
  Wall,                                   !- Surface Type
  ,                                       !- Construction Name
  {818b1fe6-7968-4e13-be11-242d7be426cc}, !- Space Name
  Surface,                                !- Outside Boundary Condition
  {83af4ad9-32fb-419a-bdcc-bf88ffdea53d}, !- Outside Boundary Condition Object
  NoSun,                                  !- Sun Exposure
  NoWind,                                 !- Wind Exposure
  ,                                       !- View Factor to Ground
  ,                                       !- Number of Vertices
  3, 14.2916164657906, 4,                 !- X,Y,Z Vertex 1 {m}
  3, 14.2916164657906, 0,                 !- X,Y,Z Vertex 2 {m}
  0, 17.2916164657906, 0,                 !- X,Y,Z Vertex 3 {m}
  0, 17.2916164657906, 4;                 !- X,Y,Z Vertex 4 {m}

OS:Surface,
  {5061520b-31f1-4cff-bdd1-1945aa529828}, !- Handle
  Surface 4,                              !- Name
  Wall,                                   !- Surface Type
  ,                                       !- Construction Name
  {818b1fe6-7968-4e13-be11-242d7be426cc}, !- Space Name
  Surface,                                !- Outside Boundary Condition
  {8947eabf-196f-420f-b73f-efc47f464852}, !- Outside Boundary Condition Object
  NoSun,                                  !- Sun Exposure
  NoWind,                                 !- Wind Exposure
  ,                                       !- View Factor to Ground
  ,                                       !- Number of Vertices
  3, 3, 4,                                !- X,Y,Z Vertex 1 {m}
  3, 3, 0,                                !- X,Y,Z Vertex 2 {m}
  3, 14.2916164657906, 0,                 !- X,Y,Z Vertex 3 {m}
  3, 14.2916164657906, 4;                 !- X,Y,Z Vertex 4 {m}

OS:Surface,
  {628196f2-db0a-4c2b-a092-a4c94d7e7ccb}, !- Handle
  Surface 5,                              !- Name
  Wall,                                   !- Surface Type
  ,                                       !- Construction Name
  {818b1fe6-7968-4e13-be11-242d7be426cc}, !- Space Name
  Surface,                                !- Outside Boundary Condition
  {ef5295a0-e9d9-4179-9942-1da4cdfde62d}, !- Outside Boundary Condition Object
  NoSun,                                  !- Sun Exposure
  NoWind,                                 !- Wind Exposure
  ,                                       !- View Factor to Ground
  ,                                       !- Number of Vertices
  0, 0, 4,                                !- X,Y,Z Vertex 1 {m}
  0, 0, 0,                                !- X,Y,Z Vertex 2 {m}
  3, 3, 0,                                !- X,Y,Z Vertex 3 {m}
  3, 3, 4;                                !- X,Y,Z Vertex 4 {m}

OS:Surface,
  {6a467a4f-a78a-441d-9098-21c9a8dca4d5}, !- Handle
  Surface 6,                              !- Name
  RoofCeiling,                            !- Surface Type
  ,                                       !- Construction Name
  {818b1fe6-7968-4e13-be11-242d7be426cc}, !- Space Name
  Outdoors,                               !- Outside Boundary Condition
  ,                                       !- Outside Boundary Condition Object
  SunExposed,                             !- Sun Exposure
  WindExposed,                            !- Wind Exposure
  ,                                       !- View Factor to Ground
  ,                                       !- Number of Vertices
  3, 3, 4,                                !- X,Y,Z Vertex 1 {m}
  3, 14.2916164657906, 4,                 !- X,Y,Z Vertex 2 {m}
  0, 17.2916164657906, 4,                 !- X,Y,Z Vertex 3 {m}
  0, 0, 4;                                !- X,Y,Z Vertex 4 {m}

OS:Space,
  {43aab452-69cf-491a-b1dc-2cea6dba386a}, !- Handle
  Story 1 North Perimeter Space,          !- Name
  ,                                       !- Space Type Name
  ,                                       !- Default Construction Set Name
  ,                                       !- Default Schedule Set Name
  -0,                                     !- Direction of Relative North {deg}
  3,                                      !- X Origin {m}
  14.2916164657906,                       !- Y Origin {m}
  0,                                      !- Z Origin {m}
  {2940700b-3773-427a-a83a-2a1ef85edd2b}, !- Building Story Name
  {9abb29c2-1f58-4703-9e78-0a067dad0f05}; !- Thermal Zone Name

OS:Surface,
  {b3deb124-36d3-4ad8-9ea2-0299f283cfc7}, !- Handle
  Surface 7,                              !- Name
  Floor,                                  !- Surface Type
  ,                                       !- Construction Name
  {43aab452-69cf-491a-b1dc-2cea6dba386a}, !- Space Name
  Ground,                                 !- Outside Boundary Condition
  ,                                       !- Outside Boundary Condition Object
  NoSun,                                  !- Sun Exposure
  NoWind,                                 !- Wind Exposure
  ,                                       !- View Factor to Ground
  ,                                       !- Number of Vertices
  -3, 3.00000000000002, 0,                !- X,Y,Z Vertex 1 {m}
  14.2916164657906, 3.00000000000002, 0,  !- X,Y,Z Vertex 2 {m}
  11.2916164657906, 1.77635683940025e-14, 0, !- X,Y,Z Vertex 3 {m}
  0, 1.77635683940025e-14, 0;             !- X,Y,Z Vertex 4 {m}

OS:Surface,
  {409d5324-2f83-4066-97d0-21ea81e4a1bf}, !- Handle
  Surface 8,                              !- Name
  Wall,                                   !- Surface Type
  ,                                       !- Construction Name
  {43aab452-69cf-491a-b1dc-2cea6dba386a}, !- Space Name
  Outdoors,                               !- Outside Boundary Condition
  ,                                       !- Outside Boundary Condition Object
  SunExposed,                             !- Sun Exposure
  WindExposed,                            !- Wind Exposure
  ,                                       !- View Factor to Ground
  ,                                       !- Number of Vertices
  14.2916164657906, 3.00000000000002, 4,  !- X,Y,Z Vertex 1 {m}
  14.2916164657906, 3.00000000000002, 0,  !- X,Y,Z Vertex 2 {m}
  -3, 3.00000000000002, 0,                !- X,Y,Z Vertex 3 {m}
  -3, 3.00000000000002, 4;                !- X,Y,Z Vertex 4 {m}

OS:Surface,
  {26cefdd8-c74b-48bd-a234-ff6eb3086bb5}, !- Handle
  Surface 9,                              !- Name
  Wall,                                   !- Surface Type
  ,                                       !- Construction Name
  {43aab452-69cf-491a-b1dc-2cea6dba386a}, !- Space Name
  Surface,                                !- Outside Boundary Condition
  {ae5ab7fe-da79-4f94-a5ce-c013954d5837}, !- Outside Boundary Condition Object
  NoSun,                                  !- Sun Exposure
  NoWind,                                 !- Wind Exposure
  ,                                       !- View Factor to Ground
  ,                                       !- Number of Vertices
  11.2916164657906, 1.77635683940025e-14, 4, !- X,Y,Z Vertex 1 {m}
  11.2916164657906, 1.77635683940025e-14, 0, !- X,Y,Z Vertex 2 {m}
  14.2916164657906, 3.00000000000002, 0,  !- X,Y,Z Vertex 3 {m}
  14.2916164657906, 3.00000000000002, 4;  !- X,Y,Z Vertex 4 {m}

OS:Surface,
  {d9d7be9c-16fb-4b91-b558-a5c3eba5748c}, !- Handle
  Surface 10,                             !- Name
  Wall,                                   !- Surface Type
  ,                                       !- Construction Name
  {43aab452-69cf-491a-b1dc-2cea6dba386a}, !- Space Name
  Surface,                                !- Outside Boundary Condition
  {b14995c0-1fb1-4e1f-83d2-f6333eaaffca}, !- Outside Boundary Condition Object
  NoSun,                                  !- Sun Exposure
  NoWind,                                 !- Wind Exposure
  ,                                       !- View Factor to Ground
  ,                                       !- Number of Vertices
  0, 1.77635683940025e-14, 4,             !- X,Y,Z Vertex 1 {m}
  0, 1.77635683940025e-14, 0,             !- X,Y,Z Vertex 2 {m}
  11.2916164657906, 1.77635683940025e-14, 0, !- X,Y,Z Vertex 3 {m}
  11.2916164657906, 1.77635683940025e-14, 4; !- X,Y,Z Vertex 4 {m}

OS:Surface,
  {83af4ad9-32fb-419a-bdcc-bf88ffdea53d}, !- Handle
  Surface 11,                             !- Name
  Wall,                                   !- Surface Type
  ,                                       !- Construction Name
  {43aab452-69cf-491a-b1dc-2cea6dba386a}, !- Space Name
  Surface,                                !- Outside Boundary Condition
  {ed37c67f-df1d-4bca-9d99-a445976c5f67}, !- Outside Boundary Condition Object
  NoSun,                                  !- Sun Exposure
  NoWind,                                 !- Wind Exposure
  ,                                       !- View Factor to Ground
  ,                                       !- Number of Vertices
  -3, 3.00000000000002, 4,                !- X,Y,Z Vertex 1 {m}
  -3, 3.00000000000002, 0,                !- X,Y,Z Vertex 2 {m}
  0, 1.77635683940025e-14, 0,             !- X,Y,Z Vertex 3 {m}
  0, 1.77635683940025e-14, 4;             !- X,Y,Z Vertex 4 {m}

OS:Surface,
  {b3407893-d37a-4f19-90fd-f35752e7637a}, !- Handle
  Surface 12,                             !- Name
  RoofCeiling,                            !- Surface Type
  ,                                       !- Construction Name
  {43aab452-69cf-491a-b1dc-2cea6dba386a}, !- Space Name
  Outdoors,                               !- Outside Boundary Condition
  ,                                       !- Outside Boundary Condition Object
  SunExposed,                             !- Sun Exposure
  WindExposed,                            !- Wind Exposure
  ,                                       !- View Factor to Ground
  ,                                       !- Number of Vertices
  0, 1.77635683940025e-14, 4,             !- X,Y,Z Vertex 1 {m}
  11.2916164657906, 1.77635683940025e-14, 4, !- X,Y,Z Vertex 2 {m}
  14.2916164657906, 3.00000000000002, 4,  !- X,Y,Z Vertex 3 {m}
  -3, 3.00000000000002, 4;                !- X,Y,Z Vertex 4 {m}

OS:Space,
  {a36869fa-7ce0-44a7-ae4e-617a6e9e696a}, !- Handle
  Story 1 East Perimeter Space,           !- Name
  ,                                       !- Space Type Name
  ,                                       !- Default Construction Set Name
  ,                                       !- Default Schedule Set Name
  -0,                                     !- Direction of Relative North {deg}
  14.2916164657906,                       !- X Origin {m}
  3,                                      !- Y Origin {m}
  0,                                      !- Z Origin {m}
  {2940700b-3773-427a-a83a-2a1ef85edd2b}, !- Building Story Name
  {a78a990e-62a2-47cd-95b8-90563560dfbc}; !- Thermal Zone Name

OS:Surface,
  {46917b01-880c-41ec-be7c-ea3cd9d16560}, !- Handle
  Surface 13,                             !- Name
  Floor,                                  !- Surface Type
  ,                                       !- Construction Name
  {a36869fa-7ce0-44a7-ae4e-617a6e9e696a}, !- Space Name
  Ground,                                 !- Outside Boundary Condition
  ,                                       !- Outside Boundary Condition Object
  NoSun,                                  !- Sun Exposure
  NoWind,                                 !- Wind Exposure
  ,                                       !- View Factor to Ground
  ,                                       !- Number of Vertices
  3.00000000000002, 14.2916164657906, 0,  !- X,Y,Z Vertex 1 {m}
  3.00000000000002, -3, 0,                !- X,Y,Z Vertex 2 {m}
  1.77635683940025e-14, 0, 0,             !- X,Y,Z Vertex 3 {m}
  1.77635683940025e-14, 11.2916164657906, 0; !- X,Y,Z Vertex 4 {m}

OS:Surface,
  {c6e6ca01-13df-410a-b29a-fa02ee804ff6}, !- Handle
  Surface 14,                             !- Name
  Wall,                                   !- Surface Type
  ,                                       !- Construction Name
  {a36869fa-7ce0-44a7-ae4e-617a6e9e696a}, !- Space Name
  Outdoors,                               !- Outside Boundary Condition
  ,                                       !- Outside Boundary Condition Object
  SunExposed,                             !- Sun Exposure
  WindExposed,                            !- Wind Exposure
  ,                                       !- View Factor to Ground
  ,                                       !- Number of Vertices
  3.00000000000002, -3, 4,                !- X,Y,Z Vertex 1 {m}
  3.00000000000002, -3, 0,                !- X,Y,Z Vertex 2 {m}
  3.00000000000002, 14.2916164657906, 0,  !- X,Y,Z Vertex 3 {m}
  3.00000000000002, 14.2916164657906, 4;  !- X,Y,Z Vertex 4 {m}

OS:Surface,
  {4119521b-fd5a-4107-a141-3ff0dacdf12c}, !- Handle
  Surface 15,                             !- Name
  Wall,                                   !- Surface Type
  ,                                       !- Construction Name
  {a36869fa-7ce0-44a7-ae4e-617a6e9e696a}, !- Space Name
  Surface,                                !- Outside Boundary Condition
  {1b46c377-df13-46ef-ac63-073dd1dfaf75}, !- Outside Boundary Condition Object
  NoSun,                                  !- Sun Exposure
  NoWind,                                 !- Wind Exposure
  ,                                       !- View Factor to Ground
  ,                                       !- Number of Vertices
  1.77635683940025e-14, 0, 4,             !- X,Y,Z Vertex 1 {m}
  1.77635683940025e-14, 0, 0,             !- X,Y,Z Vertex 2 {m}
  3.00000000000002, -3, 0,                !- X,Y,Z Vertex 3 {m}
  3.00000000000002, -3, 4;                !- X,Y,Z Vertex 4 {m}

OS:Surface,
  {df11dea7-1850-43a0-9e7c-ef0fce295cb9}, !- Handle
  Surface 16,                             !- Name
  Wall,                                   !- Surface Type
  ,                                       !- Construction Name
  {a36869fa-7ce0-44a7-ae4e-617a6e9e696a}, !- Space Name
  Surface,                                !- Outside Boundary Condition
  {407fba58-a2ca-4949-975f-63328b65f6c0}, !- Outside Boundary Condition Object
  NoSun,                                  !- Sun Exposure
  NoWind,                                 !- Wind Exposure
  ,                                       !- View Factor to Ground
  ,                                       !- Number of Vertices
  1.77635683940025e-14, 11.2916164657906, 4, !- X,Y,Z Vertex 1 {m}
  1.77635683940025e-14, 11.2916164657906, 0, !- X,Y,Z Vertex 2 {m}
  1.77635683940025e-14, 0, 0,             !- X,Y,Z Vertex 3 {m}
  1.77635683940025e-14, 0, 4;             !- X,Y,Z Vertex 4 {m}

OS:Surface,
  {ae5ab7fe-da79-4f94-a5ce-c013954d5837}, !- Handle
  Surface 17,                             !- Name
  Wall,                                   !- Surface Type
  ,                                       !- Construction Name
  {a36869fa-7ce0-44a7-ae4e-617a6e9e696a}, !- Space Name
  Surface,                                !- Outside Boundary Condition
  {26cefdd8-c74b-48bd-a234-ff6eb3086bb5}, !- Outside Boundary Condition Object
  NoSun,                                  !- Sun Exposure
  NoWind,                                 !- Wind Exposure
  ,                                       !- View Factor to Ground
  ,                                       !- Number of Vertices
  3.00000000000002, 14.2916164657906, 4,  !- X,Y,Z Vertex 1 {m}
  3.00000000000002, 14.2916164657906, 0,  !- X,Y,Z Vertex 2 {m}
  1.77635683940025e-14, 11.2916164657906, 0, !- X,Y,Z Vertex 3 {m}
  1.77635683940025e-14, 11.2916164657906, 4; !- X,Y,Z Vertex 4 {m}

OS:Surface,
  {6eb6ba16-958f-4014-97cf-19eec193d483}, !- Handle
  Surface 18,                             !- Name
  RoofCeiling,                            !- Surface Type
  ,                                       !- Construction Name
  {a36869fa-7ce0-44a7-ae4e-617a6e9e696a}, !- Space Name
  Outdoors,                               !- Outside Boundary Condition
  ,                                       !- Outside Boundary Condition Object
  SunExposed,                             !- Sun Exposure
  WindExposed,                            !- Wind Exposure
  ,                                       !- View Factor to Ground
  ,                                       !- Number of Vertices
  1.77635683940025e-14, 11.2916164657906, 4, !- X,Y,Z Vertex 1 {m}
  1.77635683940025e-14, 0, 4,             !- X,Y,Z Vertex 2 {m}
  3.00000000000002, -3, 4,                !- X,Y,Z Vertex 3 {m}
  3.00000000000002, 14.2916164657906, 4;  !- X,Y,Z Vertex 4 {m}

OS:Space,
  {9a185bed-f367-40e0-bda6-d6c34cd3e3ff}, !- Handle
  Story 1 South Perimeter Space,          !- Name
  ,                                       !- Space Type Name
  ,                                       !- Default Construction Set Name
  ,                                       !- Default Schedule Set Name
  -0,                                     !- Direction of Relative North {deg}
  0,                                      !- X Origin {m}
  0,                                      !- Y Origin {m}
  0,                                      !- Z Origin {m}
  {2940700b-3773-427a-a83a-2a1ef85edd2b}, !- Building Story Name
  {23360358-0aee-4703-9b34-251a028b80b0}; !- Thermal Zone Name

OS:Surface,
  {479862b2-711d-4b29-9b1b-bd8d3dac6c43}, !- Handle
  Surface 19,                             !- Name
  Floor,                                  !- Surface Type
  ,                                       !- Construction Name
  {9a185bed-f367-40e0-bda6-d6c34cd3e3ff}, !- Space Name
  Ground,                                 !- Outside Boundary Condition
  ,                                       !- Outside Boundary Condition Object
  NoSun,                                  !- Sun Exposure
  NoWind,                                 !- Wind Exposure
  ,                                       !- View Factor to Ground
  ,                                       !- Number of Vertices
  17.2916164657906, 0, 0,                 !- X,Y,Z Vertex 1 {m}
  0, 0, 0,                                !- X,Y,Z Vertex 2 {m}
  3, 3, 0,                                !- X,Y,Z Vertex 3 {m}
  14.2916164657906, 3, 0;                 !- X,Y,Z Vertex 4 {m}

OS:Surface,
  {95f4bab8-8aa2-459f-93af-09395c8daf1b}, !- Handle
  Surface 20,                             !- Name
  Wall,                                   !- Surface Type
  ,                                       !- Construction Name
  {9a185bed-f367-40e0-bda6-d6c34cd3e3ff}, !- Space Name
  Outdoors,                               !- Outside Boundary Condition
  ,                                       !- Outside Boundary Condition Object
  SunExposed,                             !- Sun Exposure
  WindExposed,                            !- Wind Exposure
  ,                                       !- View Factor to Ground
  ,                                       !- Number of Vertices
  0, 0, 4,                                !- X,Y,Z Vertex 1 {m}
  0, 0, 0,                                !- X,Y,Z Vertex 2 {m}
  17.2916164657906, 0, 0,                 !- X,Y,Z Vertex 3 {m}
  17.2916164657906, 0, 4;                 !- X,Y,Z Vertex 4 {m}

OS:Surface,
  {ef5295a0-e9d9-4179-9942-1da4cdfde62d}, !- Handle
  Surface 21,                             !- Name
  Wall,                                   !- Surface Type
  ,                                       !- Construction Name
  {9a185bed-f367-40e0-bda6-d6c34cd3e3ff}, !- Space Name
  Surface,                                !- Outside Boundary Condition
  {628196f2-db0a-4c2b-a092-a4c94d7e7ccb}, !- Outside Boundary Condition Object
  NoSun,                                  !- Sun Exposure
  NoWind,                                 !- Wind Exposure
  ,                                       !- View Factor to Ground
  ,                                       !- Number of Vertices
  3, 3, 4,                                !- X,Y,Z Vertex 1 {m}
  3, 3, 0,                                !- X,Y,Z Vertex 2 {m}
  0, 0, 0,                                !- X,Y,Z Vertex 3 {m}
  0, 0, 4;                                !- X,Y,Z Vertex 4 {m}

OS:Surface,
  {1278dea9-cb3e-43f9-8c50-7206f6baaec4}, !- Handle
  Surface 22,                             !- Name
  Wall,                                   !- Surface Type
  ,                                       !- Construction Name
  {9a185bed-f367-40e0-bda6-d6c34cd3e3ff}, !- Space Name
  Surface,                                !- Outside Boundary Condition
  {756c241f-2e80-4c97-b813-3b98e6f11bdf}, !- Outside Boundary Condition Object
  NoSun,                                  !- Sun Exposure
  NoWind,                                 !- Wind Exposure
  ,                                       !- View Factor to Ground
  ,                                       !- Number of Vertices
  14.2916164657906, 3, 4,                 !- X,Y,Z Vertex 1 {m}
  14.2916164657906, 3, 0,                 !- X,Y,Z Vertex 2 {m}
  3, 3, 0,                                !- X,Y,Z Vertex 3 {m}
  3, 3, 4;                                !- X,Y,Z Vertex 4 {m}

OS:Surface,
  {1b46c377-df13-46ef-ac63-073dd1dfaf75}, !- Handle
  Surface 23,                             !- Name
  Wall,                                   !- Surface Type
  ,                                       !- Construction Name
  {9a185bed-f367-40e0-bda6-d6c34cd3e3ff}, !- Space Name
  Surface,                                !- Outside Boundary Condition
  {4119521b-fd5a-4107-a141-3ff0dacdf12c}, !- Outside Boundary Condition Object
  NoSun,                                  !- Sun Exposure
  NoWind,                                 !- Wind Exposure
  ,                                       !- View Factor to Ground
  ,                                       !- Number of Vertices
  17.2916164657906, 0, 4,                 !- X,Y,Z Vertex 1 {m}
  17.2916164657906, 0, 0,                 !- X,Y,Z Vertex 2 {m}
  14.2916164657906, 3, 0,                 !- X,Y,Z Vertex 3 {m}
  14.2916164657906, 3, 4;                 !- X,Y,Z Vertex 4 {m}

OS:Surface,
  {6bfd503d-40c1-46bc-8e86-e1e9dd0f535b}, !- Handle
  Surface 24,                             !- Name
  RoofCeiling,                            !- Surface Type
  ,                                       !- Construction Name
  {9a185bed-f367-40e0-bda6-d6c34cd3e3ff}, !- Space Name
  Outdoors,                               !- Outside Boundary Condition
  ,                                       !- Outside Boundary Condition Object
  SunExposed,                             !- Sun Exposure
  WindExposed,                            !- Wind Exposure
  ,                                       !- View Factor to Ground
  ,                                       !- Number of Vertices
  14.2916164657906, 3, 4,                 !- X,Y,Z Vertex 1 {m}
  3, 3, 4,                                !- X,Y,Z Vertex 2 {m}
  0, 0, 4,                                !- X,Y,Z Vertex 3 {m}
  17.2916164657906, 0, 4;                 !- X,Y,Z Vertex 4 {m}

OS:Space,
  {b0d449f7-e5ff-42e8-8539-d6450b68af8e}, !- Handle
  Story 1 Core Space,                     !- Name
  ,                                       !- Space Type Name
  ,                                       !- Default Construction Set Name
  ,                                       !- Default Schedule Set Name
  -0,                                     !- Direction of Relative North {deg}
  3,                                      !- X Origin {m}
  3,                                      !- Y Origin {m}
  0,                                      !- Z Origin {m}
  {2940700b-3773-427a-a83a-2a1ef85edd2b}, !- Building Story Name
  {eafa8574-bed3-4777-bf9e-ff181baeed29}; !- Thermal Zone Name

OS:Surface,
  {c9efa78d-9883-44bc-9ce0-c7bcfcce607e}, !- Handle
  Surface 25,                             !- Name
  Floor,                                  !- Surface Type
  ,                                       !- Construction Name
  {b0d449f7-e5ff-42e8-8539-d6450b68af8e}, !- Space Name
  Ground,                                 !- Outside Boundary Condition
  ,                                       !- Outside Boundary Condition Object
  NoSun,                                  !- Sun Exposure
  NoWind,                                 !- Wind Exposure
  ,                                       !- View Factor to Ground
  ,                                       !- Number of Vertices
  0, 0, 0,                                !- X,Y,Z Vertex 1 {m}
  0, 11.2916164657906, 0,                 !- X,Y,Z Vertex 2 {m}
  11.2916164657906, 11.2916164657906, 0,  !- X,Y,Z Vertex 3 {m}
  11.2916164657906, 0, 0;                 !- X,Y,Z Vertex 4 {m}

OS:Surface,
  {8947eabf-196f-420f-b73f-efc47f464852}, !- Handle
  Surface 26,                             !- Name
  Wall,                                   !- Surface Type
  ,                                       !- Construction Name
  {b0d449f7-e5ff-42e8-8539-d6450b68af8e}, !- Space Name
  Surface,                                !- Outside Boundary Condition
  {5061520b-31f1-4cff-bdd1-1945aa529828}, !- Outside Boundary Condition Object
  NoSun,                                  !- Sun Exposure
  NoWind,                                 !- Wind Exposure
  ,                                       !- View Factor to Ground
  ,                                       !- Number of Vertices
  0, 11.2916164657906, 4,                 !- X,Y,Z Vertex 1 {m}
  0, 11.2916164657906, 0,                 !- X,Y,Z Vertex 2 {m}
  0, 0, 0,                                !- X,Y,Z Vertex 3 {m}
  0, 0, 4;                                !- X,Y,Z Vertex 4 {m}

OS:Surface,
  {b14995c0-1fb1-4e1f-83d2-f6333eaaffca}, !- Handle
  Surface 27,                             !- Name
  Wall,                                   !- Surface Type
  ,                                       !- Construction Name
  {b0d449f7-e5ff-42e8-8539-d6450b68af8e}, !- Space Name
  Surface,                                !- Outside Boundary Condition
  {d9d7be9c-16fb-4b91-b558-a5c3eba5748c}, !- Outside Boundary Condition Object
  NoSun,                                  !- Sun Exposure
  NoWind,                                 !- Wind Exposure
  ,                                       !- View Factor to Ground
  ,                                       !- Number of Vertices
  11.2916164657906, 11.2916164657906, 4,  !- X,Y,Z Vertex 1 {m}
  11.2916164657906, 11.2916164657906, 0,  !- X,Y,Z Vertex 2 {m}
  0, 11.2916164657906, 0,                 !- X,Y,Z Vertex 3 {m}
  0, 11.2916164657906, 4;                 !- X,Y,Z Vertex 4 {m}

OS:Surface,
  {407fba58-a2ca-4949-975f-63328b65f6c0}, !- Handle
  Surface 28,                             !- Name
  Wall,                                   !- Surface Type
  ,                                       !- Construction Name