
OS:Version,
  {fecaac92-29ea-43a5-a4c6-6e85642060a1}, !- Handle
  0.10.0;                                 !- Version Identifier

OS:BuildingStory,
  {e551de0f-01d5-43f8-8f1f-bebdd30e66fb}, !- Handle
  Story 1,                                !- Name
  0,                                      !- Nominal Z Coordinate {m}
  4,                                      !- Nominal Floor to Floor Height {m}
  ,                                       !- Default Construction Set Name
  ,                                       !- Default Schedule Set Name
  ;                                       !- Group Rendering Name

OS:Space,
  {b3dfb22b-ef48-4ced-98ba-9801fd3ad7a2}, !- Handle
  Story 1 West Perimeter Space,           !- Name
  ,                                       !- Space Type Name
  ,                                       !- Default Construction Set Name
  ,                                       !- Default Schedule Set Name
  -0,                                     !- Direction of Relative North {deg}
  0,                                      !- X Origin {m}
  0,                                      !- Y Origin {m}
  0,                                      !- Z Origin {m}
  {e551de0f-01d5-43f8-8f1f-bebdd30e66fb}, !- Building Story Name
  {64df2747-04db-4d53-bd3f-1a38de36e754}; !- Thermal Zone Name

OS:Surface,
  {0900ae1a-f397-4998-ab54-e163f0603e04}, !- Handle
  Surface 1,                              !- Name
  Floor,                                  !- Surface Type
  ,                                       !- Construction Name
  {b3dfb22b-ef48-4ced-98ba-9801fd3ad7a2}, !- Space Name
  Ground,                                 !- Outside Boundary Condition
  ,                                       !- Outside Boundary Condition Object
  NoSun,                                  !- Sun Exposure
  NoWind,                                 !- Wind Exposure
  ,                                       !- View Factor to Ground
  ,                                       !- Number of Vertices
  0, 0, 0,                                !- X,Y,Z Vertex 1 {m}
  0, 14.142135623731, 0,                  !- X,Y,Z Vertex 2 {m}
  3, 11.142135623731, 0,                  !- X,Y,Z Vertex 3 {m}
  3, 3, 0;                                !- X,Y,Z Vertex 4 {m}

OS:Surface,
  {3d617208-ffd1-475d-9cfd-b28556b76565}, !- Handle
  Surface 2,                              !- Name
  Wall,                                   !- Surface Type
  ,                                       !- Construction Name
  {b3dfb22b-ef48-4ced-98ba-9801fd3ad7a2}, !- Space Name
  Outdoors,                               !- Outside Boundary Condition
  ,                                       !- Outside Boundary Condition Object
  SunExposed,                             !- Sun Exposure
  WindExposed,                            !- Wind Exposure
  ,                                       !- View Factor to Ground
  ,                                       !- Number of Vertices
  0, 14.142135623731, 4,                  !- X,Y,Z Vertex 1 {m}
  0, 14.142135623731, 0,                  !- X,Y,Z Vertex 2 {m}
  0, 0, 0,                                !- X,Y,Z Vertex 3 {m}
  0, 0, 4;                                !- X,Y,Z Vertex 4 {m}

OS:Surface,
  {8e9cf7b9-4a9e-4e58-b4c8-19006461c159}, !- Handle
  Surface 3,                              !- Name
  Wall,                                   !- Surface Type
  ,                                       !- Construction Name
  {b3dfb22b-ef48-4ced-98ba-9801fd3ad7a2}, !- Space Name
  Surface,                                !- Outside Boundary Condition
  {2abe9914-1753-4c41-9551-1df9e9bcc3de}, !- Outside Boundary Condition Object
  NoSun,                                  !- Sun Exposure
  NoWind,                                 !- Wind Exposure
  ,                                       !- View Factor to Ground
  ,                                       !- Number of Vertices
  3, 11.142135623731, 4,                  !- X,Y,Z Vertex 1 {m}
  3, 11.142135623731, 0,                  !- X,Y,Z Vertex 2 {m}
  0, 14.142135623731, 0,                  !- X,Y,Z Vertex 3 {m}
  0, 14.142135623731, 4;                  !- X,Y,Z Vertex 4 {m}

OS:Surface,
  {4d376a5e-f928-45d8-9eff-4404c9e635d0}, !- Handle
  Surface 4,                              !- Name
  Wall,                                   !- Surface Type
  ,                                       !- Construction Name
  {b3dfb22b-ef48-4ced-98ba-9801fd3ad7a2}, !- Space Name
  Surface,                                !- Outside Boundary Condition
  {7559abc1-fb67-4bde-a287-693fde6af904}, !- Outside Boundary Condition Object
  NoSun,                                  !- Sun Exposure
  NoWind,                                 !- Wind Exposure
  ,                                       !- View Factor to Ground
  ,                                       !- Number of Vertices
  3, 3, 4,                                !- X,Y,Z Vertex 1 {m}
  3, 3, 0,                                !- X,Y,Z Vertex 2 {m}
  3, 11.142135623731, 0,                  !- X,Y,Z Vertex 3 {m}
  3, 11.142135623731, 4;                  !- X,Y,Z Vertex 4 {m}

OS:Surface,
  {6c5893f1-e80a-4e26-a6df-44aa20a00df0}, !- Handle
  Surface 5,                              !- Name
  Wall,                                   !- Surface Type
  ,                                       !- Construction Name
  {b3dfb22b-ef48-4ced-98ba-9801fd3ad7a2}, !- Space Name
  Surface,                                !- Outside Boundary Condition
  {a6f5e814-c2f4-4e35-88a5-601cec109772}, !- Outside Boundary Condition Object
  NoSun,                                  !- Sun Exposure
  NoWind,                                 !- Wind Exposure
  ,                                       !- View Factor to Ground
  ,                                       !- Number of Vertices
  0, 0, 4,                                !- X,Y,Z Vertex 1 {m}
  0, 0, 0,                                !- X,Y,Z Vertex 2 {m}
  3, 3, 0,                                !- X,Y,Z Vertex 3 {m}
  3, 3, 4;                                !- X,Y,Z Vertex 4 {m}

OS:Surface,
  {1cc0bb2a-2ce8-47cc-8a36-72662bc0ba9d}, !- Handle
  Surface 6,                              !- Name
  RoofCeiling,                            !- Surface Type
  ,                                       !- Construction Name
  {b3dfb22b-ef48-4ced-98ba-9801fd3ad7a2}, !- Space Name
  Surface,                                !- Outside Boundary Condition
  {8ea250cc-a480-4e72-9dd6-4db1be3e31b9}, !- Outside Boundary Condition Object
  NoSun,                                  !- Sun Exposure
  NoWind,                                 !- Wind Exposure
  ,                                       !- View Factor to Ground
  ,                                       !- Number of Vertices
  3, 3, 4,                                !- X,Y,Z Vertex 1 {m}
  3, 11.142135623731, 4,                  !- X,Y,Z Vertex 2 {m}
  0, 14.142135623731, 4,                  !- X,Y,Z Vertex 3 {m}
  0, 0, 4;                                !- X,Y,Z Vertex 4 {m}

OS:Space,
  {ee84ead3-b5ec-4cd9-b28e-d3fdbb32e74e}, !- Handle
  Story 1 North Perimeter Space,          !- Name
  ,                                       !- Space Type Name
  ,                                       !- Default Construction Set Name
  ,                                       !- Default Schedule Set Name
  -0,                                     !- Direction of Relative North {deg}
  3,                                      !- X Origin {m}
  11.142135623731,                        !- Y Origin {m}
  0,                                      !- Z Origin {m}
  {e551de0f-01d5-43f8-8f1f-bebdd30e66fb}, !- Building Story Name
  {93f35d5b-dd64-463b-8efc-75a7f7ffa1c3}; !- Thermal Zone Name

OS:Surface,
  {0c186c10-b7f9-447e-8b78-8456b35bbb6b}, !- Handle
  Surface 7,                              !- Name
  Floor,                                  !- Surface Type
  ,                                       !- Construction Name
  {ee84ead3-b5ec-4cd9-b28e-d3fdbb32e74e}, !- Space Name
  Ground,                                 !- Outside Boundary Condition
  ,                                       !- Outside Boundary Condition Object
  NoSun,                                  !- Sun Exposure
  NoWind,                                 !- Wind Exposure
  ,                                       !- View Factor to Ground
  ,                                       !- Number of Vertices
  -3, 3.00000000000005, 0,                !- X,Y,Z Vertex 1 {m}
  11.142135623731, 3.00000000000005, 0,   !- X,Y,Z Vertex 2 {m}
  8.142135623731, 4.9737991503207e-14, 0, !- X,Y,Z Vertex 3 {m}
  0, 4.9737991503207e-14, 0;              !- X,Y,Z Vertex 4 {m}

OS:Surface,
  {c833cf4d-bcf1-4a81-b504-7428bc0efe3a}, !- Handle
  Surface 8,                              !- Name
  Wall,                                   !- Surface Type
  ,                                       !- Construction Name
  {ee84ead3-b5ec-4cd9-b28e-d3fdbb32e74e}, !- Space Name
  Outdoors,                               !- Outside Boundary Condition
  ,                                       !- Outside Boundary Condition Object
  SunExposed,                             !- Sun Exposure
  WindExposed,                            !- Wind Exposure
  ,                                       !- View Factor to Ground
  ,                                       !- Number of Vertices
  11.142135623731, 3.00000000000005, 4,   !- X,Y,Z Vertex 1 {m}
  11.142135623731, 3.00000000000005, 0,   !- X,Y,Z Vertex 2 {m}
  -3, 3.00000000000005, 0,                !- X,Y,Z Vertex 3 {m}
  -3, 3.00000000000005, 4;                !- X,Y,Z Vertex 4 {m}

OS:Surface,
  {1bc51836-fb4e-47cb-850f-577982f42e65}, !- Handle
  Surface 9,                              !- Name
  Wall,                                   !- Surface Type
  ,                                       !- Construction Name
  {ee84ead3-b5ec-4cd9-b28e-d3fdbb32e74e}, !- Space Name
  Surface,                                !- Outside Boundary Condition
  {c36c3356-ecb7-4ce8-974c-fbbf66ef31af}, !- Outside Boundary Condition Object
  NoSun,                                  !- Sun Exposure
  NoWind,                                 !- Wind Exposure
  ,                                       !- View Factor to Ground
  ,                                       !- Number of Vertices
  8.142135623731, 4.9737991503207e-14, 4, !- X,Y,Z Vertex 1 {m}
  8.142135623731, 4.9737991503207e-14, 0, !- X,Y,Z Vertex 2 {m}
  11.142135623731, 3.00000000000005, 0,   !- X,Y,Z Vertex 3 {m}
  11.142135623731, 3.00000000000005, 4;   !- X,Y,Z Vertex 4 {m}

OS:Surface,
  {24fcec09-d1e8-429a-b6e6-3cd24ad1342a}, !- Handle
  Surface 10,                             !- Name
  Wall,                                   !- Surface Type
  ,                                       !- Construction Name
  {ee84ead3-b5ec-4cd9-b28e-d3fdbb32e74e}, !- Space Name
  Surface,                                !- Outside Boundary Condition
  {ae5483d0-8c82-4526-b774-6a65c0190e8b}, !- Outside Boundary Condition Object
  NoSun,                                  !- Sun Exposure
  NoWind,                                 !- Wind Exposure
  ,                                       !- View Factor to Ground
  ,                                       !- Number of Vertices
  0, 4.9737991503207e-14, 4,              !- X,Y,Z Vertex 1 {m}
  0, 4.9737991503207e-14, 0,              !- X,Y,Z Vertex 2 {m}
  8.142135623731, 4.9737991503207e-14, 0, !- X,Y,Z Vertex 3 {m}
  8.142135623731, 4.9737991503207e-14, 4; !- X,Y,Z Vertex 4 {m}

OS:Surface,
  {2abe9914-1753-4c41-9551-1df9e9bcc3de}, !- Handle
  Surface 11,                             !- Name
  Wall,                                   !- Surface Type
  ,                                       !- Construction Name
  {ee84ead3-b5ec-4cd9-b28e-d3fdbb32e74e}, !- Space Name
  Surface,                                !- Outside Boundary Condition
  {8e9cf7b9-4a9e-4e58-b4c8-19006461c159}, !- Outside Boundary Condition Object
  NoSun,                                  !- Sun Exposure
  NoWind,                                 !- Wind Exposure
  ,                                       !- View Factor to Ground
  ,                                       !- Number of Vertices
  -3, 3.00000000000005, 4,                !- X,Y,Z Vertex 1 {m}
  -3, 3.00000000000005, 0,                !- X,Y,Z Vertex 2 {m}
  0, 4.9737991503207e-14, 0,              !- X,Y,Z Vertex 3 {m}
  0, 4.9737991503207e-14, 4;              !- X,Y,Z Vertex 4 {m}

OS:Surface,
  {33a96c38-8456-4d53-a0f2-a4f3e5516d69}, !- Handle
  Surface 12,                             !- Name
  RoofCeiling,                            !- Surface Type
  ,                                       !- Construction Name
  {ee84ead3-b5ec-4cd9-b28e-d3fdbb32e74e}, !- Space Name
  Surface,                                !- Outside Boundary Condition
  {b82adf4d-027a-4d80-bab2-f73f567a7e81}, !- Outside Boundary Condition Object
  NoSun,                                  !- Sun Exposure
  NoWind,                                 !- Wind Exposure
  ,                                       !- View Factor to Ground
  ,                                       !- Number of Vertices
  0, 4.9737991503207e-14, 4,              !- X,Y,Z Vertex 1 {m}
  8.142135623731, 4.9737991503207e-14, 4, !- X,Y,Z Vertex 2 {m}
  11.142135623731, 3.00000000000005, 4,   !- X,Y,Z Vertex 3 {m}
  -3, 3.00000000000005, 4;                !- X,Y,Z Vertex 4 {m}

OS:Space,
  {ae3ac8da-8d4e-457e-8e1c-d75d6111c3e4}, !- Handle
  Story 1 East Perimeter Space,           !- Name
  ,                                       !- Space Type Name
  ,                                       !- Default Construction Set Name
  ,                                       !- Default Schedule Set Name
  -0,                                     !- Direction of Relative North {deg}
  11.142135623731,                        !- X Origin {m}
  3,                                      !- Y Origin {m}
  0,                                      !- Z Origin {m}
  {e551de0f-01d5-43f8-8f1f-bebdd30e66fb}, !- Building Story Name
  {38e92c47-5647-4bf9-bc00-3e2b36189ead}; !- Thermal Zone Name

OS:Surface,
  {2e3ab5d9-0119-4e75-80cb-c901b49285fc}, !- Handle
  Surface 13,                             !- Name
  Floor,                                  !- Surface Type
  ,                                       !- Construction Name
  {ae3ac8da-8d4e-457e-8e1c-d75d6111c3e4}, !- Space Name
  Ground,                                 !- Outside Boundary Condition
  ,                                       !- Outside Boundary Condition Object
  NoSun,                                  !- Sun Exposure
  NoWind,                                 !- Wind Exposure
  ,                                       !- View Factor to Ground
  ,                                       !- Number of Vertices
  3.00000000000005, 11.142135623731, 0,   !- X,Y,Z Vertex 1 {m}
  3.00000000000005, -3, 0,                !- X,Y,Z Vertex 2 {m}
  4.9737991503207e-14, 0, 0,              !- X,Y,Z Vertex 3 {m}
  4.9737991503207e-14, 8.142135623731, 0; !- X,Y,Z Vertex 4 {m}

OS:Surface,
  {5deb8630-ef45-4c7c-9836-14a5f3d31135}, !- Handle
  Surface 14,                             !- Name
  Wall,                                   !- Surface Type
  ,                                       !- Construction Name
  {ae3ac8da-8d4e-457e-8e1c-d75d6111c3e4}, !- Space Name
  Outdoors,                               !- Outside Boundary Condition
  ,                                       !- Outside Boundary Condition Object
  SunExposed,                             !- Sun Exposure
  WindExposed,                            !- Wind Exposure
  ,                                       !- View Factor to Ground
  ,                                       !- Number of Vertices
  3.00000000000005, -3, 4,                !- X,Y,Z Vertex 1 {m}
  3.00000000000005, -3, 0,                !- X,Y,Z Vertex 2 {m}
  3.00000000000005, 11.142135623731, 0,   !- X,Y,Z Vertex 3 {m}
  3.00000000000005, 11.142135623731, 4;   !- X,Y,Z Vertex 4 {m}

OS:Surface,
  {9a76714c-19a3-456a-919c-76e1abc5e93b}, !- Handle
  Surface 15,                             !- Name
  Wall,                                   !- Surface Type
  ,                                       !- Construction Name
  {ae3ac8da-8d4e-457e-8e1c-d75d6111c3e4}, !- Space Name
  Surface,                                !- Outside Boundary Condition
  {297d0e26-372a-4ff0-b4de-2e48c05620d8}, !- Outside Boundary Condition Object
  NoSun,                                  !- Sun Exposure
  NoWind,                                 !- Wind Exposure
  ,                                       !- View Factor to Ground
  ,                                       !- Number of Vertices
  4.9737991503207e-14, 0, 4,              !- X,Y,Z Vertex 1 {m}
  4.9737991503207e-14, 0, 0,              !- X,Y,Z Vertex 2 {m}
  3.00000000000005, -3, 0,                !- X,Y,Z Vertex 3 {m}
  3.00000000000005, -3, 4;                !- X,Y,Z Vertex 4 {m}

OS:Surface,
  {6bd25bd2-800d-4ba1-9843-667750c9b0f5}, !- Handle
  Surface 16,                             !- Name
  Wall,                                   !- Surface Type
  ,                                       !- Construction Name
  {ae3ac8da-8d4e-457e-8e1c-d75d6111c3e4}, !- Space Name
  Surface,                                !- Outside Boundary Condition
  {70c04420-3bf1-47de-8c09-cc6d5bfe536c}, !- Outside Boundary Condition Object
  NoSun,                                  !- Sun Exposure
  NoWind,                                 !- Wind Exposure
  ,                                       !- View Factor to Ground
  ,                                       !- Number of Vertices
  4.9737991503207e-14, 8.142135623731, 4, !- X,Y,Z Vertex 1 {m}
  4.9737991503207e-14, 8.142135623731, 0, !- X,Y,Z Vertex 2 {m}
  4.9737991503207e-14, 0, 0,              !- X,Y,Z Vertex 3 {m}
  4.9737991503207e-14, 0, 4;              !- X,Y,Z Vertex 4 {m}

OS:Surface,
  {c36c3356-ecb7-4ce8-974c-fbbf66ef31af}, !- Handle
  Surface 17,                             !- Name
  Wall,                                   !- Surface Type
  ,                                       !- Construction Name
  {ae3ac8da-8d4e-457e-8e1c-d75d6111c3e4}, !- Space Name
  Surface,                                !- Outside Boundary Condition
  {1bc51836-fb4e-47cb-850f-577982f42e65}, !- Outside Boundary Condition Object
  NoSun,                                  !- Sun Exposure
  NoWind,                                 !- Wind Exposure
  ,                                       !- View Factor to Ground
  ,                                       !- Number of Vertices
  3.00000000000005, 11.142135623731, 4,   !- X,Y,Z Vertex 1 {m}
  3.00000000000005, 11.142135623731, 0,   !- X,Y,Z Vertex 2 {m}
  4.9737991503207e-14, 8.142135623731, 0, !- X,Y,Z Vertex 3 {m}
  4.9737991503207e-14, 8.142135623731, 4; !- X,Y,Z Vertex 4 {m}

OS:Surface,
  {f7c1f397-d155-4843-ac66-8b746bcea508}, !- Handle
  Surface 18,                             !- Name
  RoofCeiling,                            !- Surface Type
  ,                                       !- Construction Name
  {ae3ac8da-8d4e-457e-8e1c-d75d6111c3e4}, !- Space Name
  Surface,                                !- Outside Boundary Condition
  {391de533-8e08-4ffc-8c15-7bce6671c98f}, !- Outside Boundary Condition Object
  NoSun,                                  !- Sun Exposure
  NoWind,                                 !- Wind Exposure
  ,                                       !- View Factor to Ground
  ,                                       !- Number of Vertices
  4.9737991503207e-14, 8.142135623731, 4, !- X,Y,Z Vertex 1 {m}
  4.9737991503207e-14, 0, 4,              !- X,Y,Z Vertex 2 {m}
  3.00000000000005, -3, 4,                !- X,Y,Z Vertex 3 {m}
  3.00000000000005, 11.142135623731, 4;   !- X,Y,Z Vertex 4 {m}

OS:Space,
  {89e0940a-92fb-4434-964a-4e1ea9ff3884}, !- Handle
  Story 1 South Perimeter Space,          !- Name
  ,                                       !- Space Type Name
  ,                                       !- Default Construction Set Name
  ,                                       !- Default Schedule Set Name
  -0,                                     !- Direction of Relative North {deg}
  0,                                      !- X Origin {m}
  0,                                      !- Y Origin {m}
  0,                                      !- Z Origin {m}
  {e551de0f-01d5-43f8-8f1f-bebdd30e66fb}, !- Building Story Name
  {82827b66-e24c-4ed1-806d-9f650e03218b}; !- Thermal Zone Name

OS:Surface,
  {3fad0a6c-f7bd-4d9f-bece-8d2aefbcff2c}, !- Handle
  Surface 19,                             !- Name
  Floor,                                  !- Surface Type
  ,                                       !- Construction Name
  {89e0940a-92fb-4434-964a-4e1ea9ff3884}, !- Space Name
  Ground,                                 !- Outside Boundary Condition
  ,                                       !- Outside Boundary Condition Object
  NoSun,                                  !- Sun Exposure
  NoWind,                                 !- Wind Exposure
  ,                                       !- View Factor to Ground
  ,                                       !- Number of Vertices
  14.142135623731, 0, 0,                  !- X,Y,Z Vertex 1 {m}
  0, 0, 0,                                !- X,Y,Z Vertex 2 {m}
  3, 3, 0,                                !- X,Y,Z Vertex 3 {m}
  11.142135623731, 3, 0;                  !- X,Y,Z Vertex 4 {m}

OS:Surface,
  {8de6f041-52b6-44dc-9b49-ffe711acdcd4}, !- Handle
  Surface 20,                             !- Name
  Wall,                                   !- Surface Type
  ,                                       !- Construction Name
  {89e0940a-92fb-4434-964a-4e1ea9ff3884}, !- Space Name
  Outdoors,                               !- Outside Boundary Condition
  ,                                       !- Outside Boundary Condition Object
  SunExposed,                             !- Sun Exposure
  WindExposed,                            !- Wind Exposure
  ,                                       !- View Factor to Ground
  ,                                       !- Number of Vertices
  0, 0, 4,                                !- X,Y,Z Vertex 1 {m}
  0, 0, 0,                                !- X,Y,Z Vertex 2 {m}
  14.142135623731, 0, 0,                  !- X,Y,Z Vertex 3 {m}
  14.142135623731, 0, 4;                  !- X,Y,Z Vertex 4 {m}

OS:Surface,
  {a6f5e814-c2f4-4e35-88a5-601cec109772}, !- Handle
  Surface 21,                             !- Name
  Wall,                                   !- Surface Type
  ,                                       !- Construction Name
  {89e0940a-92fb-4434-964a-4e1ea9ff3884}, !- Space Name
  Surface,                                !- Outside Boundary Condition
  {6c5893f1-e80a-4e26-a6df-44aa20a00df0}, !- Outside Boundary Condition Object
  NoSun,                                  !- Sun Exposure
  NoWind,                                 !- Wind Exposure
  ,                                       !- View Factor to Ground
  ,                                       !- Number of Vertices
  3, 3, 4,                                !- X,Y,Z Vertex 1 {m}
  3, 3, 0,                                !- X,Y,Z Vertex 2 {m}
  0, 0, 0,                                !- X,Y,Z Vertex 3 {m}
  0, 0, 4;                                !- X,Y,Z Vertex 4 {m}

OS:Surface,
  {6c953951-68b4-4377-8bd3-c3eba68c2b2e}, !- Handle
  Surface 22,                             !- Name
  Wall,                                   !- Surface Type
  ,                                       !- Construction Name
  {89e0940a-92fb-4434-964a-4e1ea9ff3884}, !- Space Name
  Surface,                                !- Outside Boundary Condition
  {b4961942-c240-41b9-bb48-f5cda21046d1}, !- Outside Boundary Condition Object
  NoSun,                                  !- Sun Exposure
  NoWind,                                 !- Wind Exposure
  ,                                       !- View Factor to Ground
  ,                                       !- Number of Vertices
  11.142135623731, 3, 4,                  !- X,Y,Z Vertex 1 {m}
  11.142135623731, 3, 0,                  !- X,Y,Z Vertex 2 {m}
  3, 3, 0,                                !- X,Y,Z Vertex 3 {m}
  3, 3, 4;                                !- X,Y,Z Vertex 4 {m}

OS:Surface,
  {297d0e26-372a-4ff0-b4de-2e48c05620d8}, !- Handle
  Surface 23,                             !- Name
  Wall,                                   !- Surface Type
  ,                                       !- Construction Name
  {89e0940a-92fb-4434-964a-4e1ea9ff3884}, !- Space Name
  Surface,                                !- Outside Boundary Condition
  {9a76714c-19a3-456a-919c-76e1abc5e93b}, !- Outside Boundary Condition Object
  NoSun,                                  !- Sun Exposure
  NoWind,                                 !- Wind Exposure
  ,                                       !- View Factor to Ground
  ,                                       !- Number of Vertices
  14.142135623731, 0, 4,                  !- X,Y,Z Vertex 1 {m}
  14.142135623731, 0, 0,                  !- X,Y,Z Vertex 2 {m}
  11.142135623731, 3, 0,                  !- X,Y,Z Vertex 3 {m}
  11.142135623731, 3, 4;                  !- X,Y,Z Vertex 4 {m}

OS:Surface,
  {447c7366-3411-42f3-a7f3-1bc07fd1bc8c}, !- Handle
  Surface 24,                             !- Name
  RoofCeiling,                            !- Surface Type
  ,                                       !- Construction Name
  {89e0940a-92fb-4434-964a-4e1ea9ff3884}, !- Space Name
  Surface,                                !- Outside Boundary Condition
  {4d85396a-4027-41f7-8491-bd5c2edbbd19}, !- Outside Boundary Condition Object
  NoSun,                                  !- Sun Exposure
  NoWind,                                 !- Wind Exposure
  ,                                       !- View Factor to Ground
  ,                                       !- Number of Vertices
  11.142135623731, 3, 4,                  !- X,Y,Z Vertex 1 {m}
  3, 3, 4,                                !- X,Y,Z Vertex 2 {m}
  0, 0, 4,                                !- X,Y,Z Vertex 3 {m}
  14.142135623731, 0, 4;                  !- X,Y,Z Vertex 4 {m}

OS:Space,
  {c68a450a-11e4-4a1b-b908-5dc021f273f0}, !- Handle
  Story 1 Core Space,                     !- Name
  ,                                       !- Space Type Name
  ,                                       !- Default Construction Set Name
  ,                                       !- Default Schedule Set Name
  -0,                                     !- Direction of Relative North {deg}
  3,                                      !- X Origin {m}
  3,                                      !- Y Origin {m}
  0,                                      !- Z Origin {m}
  {e551de0f-01d5-43f8-8f1f-bebdd30e66fb}, !- Building Story Name
  {ac2846b9-c3b9-471d-91ce-27c7d9bf8740}; !- Thermal Zone Name

OS:Surface,
  {0eb9c30b-0c52-4976-93c5-0d057ce52248}, !- Handle
  Surface 25,                             !- Name
  Floor,                                  !- Surface Type
  ,                                       !- Construction Name
  {c68a450a-11e4-4a1b-b908-5dc021f273f0}, !- Space Name
  Ground,                                 !- Outside Boundary Condition
  ,                                       !- Outside Boundary Condition Object
  NoSun,                                  !- Sun Exposure
  NoWind,                                 !- Wind Exposure
  ,                                       !- View Factor to Ground
  ,                                       !- Number of Vertices
  0, 0, 0,                                !- X,Y,Z Vertex 1 {m}
  0, 8.142135623731, 0,                   !- X,Y,Z Vertex 2 {m}
  8.142135623731, 8.142135623731, 0,      !- X,Y,Z Vertex 3 {m}
  8.142135623731, 0, 0;                   !- X,Y,Z Vertex 4 {m}

OS:Surface,
  {7559abc1-fb67-4bde-a287-693fde6af904}, !- Handle
  Surface 26,                             !- Name
  Wall,                                   !- Surface Type
  ,                                       !- Construction Name
  {c68a450a-11e4-4a1b-b908-5dc021f273f0}, !- Space Name
  Surface,                                !- Outside Boundary Condition
  {4d376a5e-f928-45d8-9eff-4404c9e635d0}, !- Outside Boundary Condition Object
  NoSun,                                  !- Sun Exposure
  NoWind,                                 !- Wind Exposure
  ,                                       !- View Factor to Ground
  ,                                       !- Number of Vertices
  0, 8.142135623731, 4,                   !- X,Y,Z Vertex 1 {m}
  0, 8.142135623731, 0,                   !- X,Y,Z Vertex 2 {m}
  0, 0, 0,                                !- X,Y,Z Vertex 3 {m}
  0, 0, 4;                                !- X,Y,Z Vertex 4 {m}

OS:Surface,
  {ae5483d0-8c82-4526-b774-6a65c0190e8b}, !- Handle
  Surface 27,                             !- Name
  Wall,                                   !- Surface Type
  ,                                       !- Construction Name
  {c68a450a-11e4-4a1b-b908-5dc021f273f0}, !- Space Name
  Surface,                                !- Outside Boundary Condition
  {24fcec09-d1e8-429a-b6e6-3cd24ad1342a}, !- Outside Boundary Condition Object
  NoSun,                                  !- Sun Exposure
  NoWind,                                 !- Wind Exposure
  ,                                       !- View Factor to Ground
  ,                                       !- Number of Vertices
  8.142135623731, 8.142135623731, 4,      !- X,Y,Z Vertex 1 {m}
  8.142135623731, 8.142135623731, 0,      !- X,Y,Z Vertex 2 {m}
  0, 8.142135623731, 0,                   !- X,Y,Z Vertex 3 {m}
  0, 8.142135623731, 4;                   !- X,Y,Z Vertex 4 {m}

OS:Surface,
  {70c04420-3bf1-47de-8c09-cc6d5bfe536c}, !- Handle
  Surface 28,                             !- Name
  Wall,                                   !- Surface Type
  ,                                       !- Construction Name
  {c68a450a-11e4-4a1b-b908-5dc021f273f0}, !- Space Name