
OS:Version,
  {91265a9f-ba1b-4096-913a-e5a7f4124111}, !- Handle
  0.10.0;                                 !- Version Identifier

OS:BuildingStory,
  {9375d090-836e-44d4-9a08-84f83371b7c4}, !- Handle
  Story 1,                                !- Name
  0,                                      !- Nominal Z Coordinate {m}
  4,                                      !- Nominal Floor to Floor Height {m}
  ,                                       !- Default Construction Set Name
  ,                                       !- Default Schedule Set Name
  ;                                       !- Group Rendering Name

OS:Space,
  {53549bc9-b6f1-4009-81c1-744f2d2cac0c}, !- Handle
  Story 1 West Perimeter Space,           !- Name
  ,                                       !- Space Type Name
  ,                                       !- Default Construction Set Name
  ,                                       !- Default Schedule Set Name
  -0,                                     !- Direction of Relative North {deg}
  0,                                      !- X Origin {m}
  0,                                      !- Y Origin {m}
  0,                                      !- Z Origin {m}
  {9375d090-836e-44d4-9a08-84f83371b7c4}, !- Building Story Name
  {9da13fac-2be1-4537-bcbb-eccbb3e5b618}; !- Thermal Zone Name

OS:Surface,
  {a267e0bf-31bc-476f-b447-d6d286f645ce}, !- Handle
  Surface 1,                              !- Name
  Floor,                                  !- Surface Type
  ,                                       !- Construction Name
  {53549bc9-b6f1-4009-81c1-744f2d2cac0c}, !- Space Name
  Ground,                                 !- Outside Boundary Condition
  ,                                       !- Outside Boundary Condition Object
  NoSun,                                  !- Sun Exposure
  NoWind,                                 !- Wind Exposure
  ,                                       !- View Factor to Ground
  ,                                       !- Number of Vertices
  0, 0, 0,                                !- X,Y,Z Vertex 1 {m}
  0, 7.07106781186548, 0,                 !- X,Y,Z Vertex 2 {m}
  3, 4.07106781186548, 0,                 !- X,Y,Z Vertex 3 {m}
  3, 3, 0;                                !- X,Y,Z Vertex 4 {m}

OS:Surface,
  {3aa439a7-b8bb-4d1f-81d3-22e65c73e33e}, !- Handle
  Surface 2,                              !- Name
  Wall,                                   !- Surface Type
  ,                                       !- Construction Name
  {53549bc9-b6f1-4009-81c1-744f2d2cac0c}, !- Space Name
  Outdoors,                               !- Outside Boundary Condition
  ,                                       !- Outside Boundary Condition Object
  SunExposed,                             !- Sun Exposure
  WindExposed,                            !- Wind Exposure
  ,                                       !- View Factor to Ground
  ,                                       !- Number of Vertices
  0, 7.07106781186548, 4,                 !- X,Y,Z Vertex 1 {m}
  0, 7.07106781186548, 0,                 !- X,Y,Z Vertex 2 {m}
  0, 0, 0,                                !- X,Y,Z Vertex 3 {m}
  0, 0, 4;                                !- X,Y,Z Vertex 4 {m}

OS:Surface,
  {75d75d34-eefb-4bd8-a3a7-252e2d49828c}, !- Handle
  Surface 3,                              !- Name
  Wall,                                   !- Surface Type
  ,                                       !- Construction Name
  {53549bc9-b6f1-4009-81c1-744f2d2cac0c}, !- Space Name
  Surface,                                !- Outside Boundary Condition
  {4821f270-2676-4bf1-bc98-2eb75f13f280}, !- Outside Boundary Condition Object
  NoSun,                                  !- Sun Exposure
  NoWind,                                 !- Wind Exposure
  ,                                       !- View Factor to Ground
  ,                                       !- Number of Vertices
  3, 4.07106781186548, 4,                 !- X,Y,Z Vertex 1 {m}
  3, 4.07106781186548, 0,                 !- X,Y,Z Vertex 2 {m}
  0, 7.07106781186548, 0,                 !- X,Y,Z Vertex 3 {m}
  0, 7.07106781186548, 4;                 !- X,Y,Z Vertex 4 {m}

OS:Surface,
  {8e314903-dd67-4348-b6a9-38ca8a92abca}, !- Handle
  Surface 4,                              !- Name
  Wall,                                   !- Surface Type
  ,                                       !- Construction Name
  {53549bc9-b6f1-4009-81c1-744f2d2cac0c}, !- Space Name
  Surface,                                !- Outside Boundary Condition
  {31f85297-87a8-4479-b1ad-c24de86b0d42}, !- Outside Boundary Condition Object
  NoSun,                                  !- Sun Exposure
  NoWind,                                 !- Wind Exposure
  ,                                       !- View Factor to Ground
  ,                                       !- Number of Vertices
  3, 3, 4,                                !- X,Y,Z Vertex 1 {m}
  3, 3, 0,                                !- X,Y,Z Vertex 2 {m}
  3, 4.07106781186548, 0,                 !- X,Y,Z Vertex 3 {m}
  3, 4.07106781186548, 4;                 !- X,Y,Z Vertex 4 {m}

OS:Surface,
  {20c47468-d7dd-4109-a476-4e7be8d19246}, !- Handle
  Surface 5,                              !- Name
  Wall,                                   !- Surface Type
  ,                                       !- Construction Name
  {53549bc9-b6f1-4009-81c1-744f2d2cac0c}, !- Space Name
  Surface,                                !- Outside Boundary Condition
  {f49958d8-3b20-4c74-9a61-a0a7fe759ab4}, !- Outside Boundary Condition Object
  NoSun,                                  !- Sun Exposure
  NoWind,                                 !- Wind Exposure
  ,                                       !- View Factor to Ground
  ,                                       !- Number of Vertices
  0, 0, 4,                                !- X,Y,Z Vertex 1 {m}
  0, 0, 0,                                !- X,Y,Z Vertex 2 {m}
  3, 3, 0,                                !- X,Y,Z Vertex 3 {m}
  3, 3, 4;                                !- X,Y,Z Vertex 4 {m}

OS:Surface,
  {9c20d04f-ca57-4be4-9868-c6d602426f19}, !- Handle
  Surface 6,                              !- Name
  RoofCeiling,                            !- Surface Type
  ,                                       !- Construction Name
  {53549bc9-b6f1-4009-81c1-744f2d2cac0c}, !- Space Name
  Outdoors,                               !- Outside Boundary Condition
  ,                                       !- Outside Boundary Condition Object
  SunExposed,                             !- Sun Exposure
  WindExposed,                            !- Wind Exposure
  ,                                       !- View Factor to Ground
  ,                                       !- Number of Vertices
  3, 3, 4,                                !- X,Y,Z Vertex 1 {m}
  3, 4.07106781186548, 4,                 !- X,Y,Z Vertex 2 {m}
  0, 7.07106781186548, 4,                 !- X,Y,Z Vertex 3 {m}
  0, 0, 4;                                !- X,Y,Z Vertex 4 {m}

OS:Space,
  {d82d82b1-da6b-46ff-bf3e-b1b40522bdd4}, !- Handle
  Story 1 North Perimeter Space,          !- Name
  ,                                       !- Space Type Name
  ,                                       !- Default Construction Set Name
  ,                                       !- Default Schedule Set Name
  -0,                                     !- Direction of Relative North {deg}
  3,                                      !- X Origin {m}
  4.07106781186548,                       !- Y Origin {m}
  0,                                      !- Z Origin {m}
  {9375d090-836e-44d4-9a08-84f83371b7c4}, !- Building Story Name
  {f2080e28-8145-4a54-aa17-9b8a34de6ff5}; !- Thermal Zone Name

OS:Surface,
  {ec1c5ab9-9c3f-47bd-89f3-962607266f95}, !- Handle
  Surface 7,                              !- Name
  Floor,                                  !- Surface Type
  ,                                       !- Construction Name
  {d82d82b1-da6b-46ff-bf3e-b1b40522bdd4}, !- Space Name
  Ground,                                 !- Outside Boundary Condition
  ,                                       !- Outside Boundary Condition Object
  NoSun,                                  !- Sun Exposure
  NoWind,                                 !- Wind Exposure
  ,                                       !- View Factor to Ground
  ,                                       !- Number of Vertices
  -3, 3, 0,                               !- X,Y,Z Vertex 1 {m}
  4.07106781186548, 3, 0,                 !- X,Y,Z Vertex 2 {m}
  1.07106781186548, 4.44089209850063e-15, 0, !- X,Y,Z Vertex 3 {m}
  0, 4.44089209850063e-15, 0;             !- X,Y,Z Vertex 4 {m}

OS:Surface,
  {22218c64-9ac1-4a11-b6a4-55723a41f4b5}, !- Handle
  Surface 8,                              !- Name
  Wall,                                   !- Surface Type
  ,                                       !- Construction Name
  {d82d82b1-da6b-46ff-bf3e-b1b40522bdd4}, !- Space Name
  Outdoors,                               !- Outside Boundary Condition
  ,                                       !- Outside Boundary Condition Object
  SunExposed,                             !- Sun Exposure
  WindExposed,                            !- Wind Exposure
  ,                                       !- View Factor to Ground
  ,                                       !- Number of Vertices
  4.07106781186548, 3, 4,                 !- X,Y,Z Vertex 1 {m}
  4.07106781186548, 3, 0,                 !- X,Y,Z Vertex 2 {m}
  -3, 3, 0,                               !- X,Y,Z Vertex 3 {m}
  -3, 3, 4;                               !- X,Y,Z Vertex 4 {m}

OS:Surface,
  {552ba18d-c140-4317-926b-d82967c59bd3}, !- Handle
  Surface 9,                              !- Name
  Wall,                                   !- Surface Type
  ,                                       !- Construction Name
  {d82d82b1-da6b-46ff-bf3e-b1b40522bdd4}, !- Space Name
  Surface,                                !- Outside Boundary Condition
  {384bfb82-e700-4af6-852c-ea929e645660}, !- Outside Boundary Condition Object
  NoSun,                                  !- Sun Exposure
  NoWind,                                 !- Wind Exposure
  ,                                       !- View Factor to Ground
  ,                                       !- Number of Vertices
  1.07106781186548, 4.44089209850063e-15, 4, !- X,Y,Z Vertex 1 {m}
  1.07106781186548, 4.44089209850063e-15, 0, !- X,Y,Z Vertex 2 {m}
  4.07106781186548, 3, 0,                 !- X,Y,Z Vertex 3 {m}
  4.07106781186548, 3, 4;                 !- X,Y,Z Vertex 4 {m}

OS:Surface,
  {557b2580-577b-4506-8f10-6c65038bb270}, !- Handle
  Surface 10,                             !- Name
  Wall,                                   !- Surface Type
  ,                                       !- Construction Name
  {d82d82b1-da6b-46ff-bf3e-b1b40522bdd4}, !- Space Name
  Surface,                                !- Outside Boundary Condition
  {d946e4b6-df8d-4c13-a097-93bd05eac5ad}, !- Outside Boundary Condition Object
  NoSun,                                  !- Sun Exposure
  NoWind,                                 !- Wind Exposure
  ,                                       !- View Factor to Ground
  ,                                       !- Number of Vertices
  0, 4.44089209850063e-15, 4,             !- X,Y,Z Vertex 1 {m}
  0, 4.44089209850063e-15, 0,             !- X,Y,Z Vertex 2 {m}
  1.07106781186548, 4.44089209850063e-15, 0, !- X,Y,Z Vertex 3 {m}
  1.07106781186548, 4.44089209850063e-15, 4; !- X,Y,Z Vertex 4 {m}

OS:Surface,
  {4821f270-2676-4bf1-bc98-2eb75f13f280}, !- Handle
  Surface 11,                             !- Name
  Wall,                                   !- Surface Type
  ,                                       !- Construction Name
  {d82d82b1-da6b-46ff-bf3e-b1b40522bdd4}, !- Space Name
  Surface,                                !- Outside Boundary Condition
  {75d75d34-eefb-4bd8-a3a7-252e2d49828c}, !- Outside Boundary Condition Object
  NoSun,                                  !- Sun Exposure
  NoWind,                                 !- Wind Exposure
  ,                                       !- View Factor to Ground
  ,                                       !- Number of Vertices
  -3, 3, 4,                               !- X,Y,Z Vertex 1 {m}
  -3, 3, 0,                               !- X,Y,Z Vertex 2 {m}
  0, 4.44089209850063e-15, 0,             !- X,Y,Z Vertex 3 {m}
  0, 4.44089209850063e-15, 4;             !- X,Y,Z Vertex 4 {m}

OS:Surface,
  {c0aefa9d-54bd-42e5-8e70-148a7593333d}, !- Handle
  Surface 12,                             !- Name
  RoofCeiling,                            !- Surface Type
  ,                                       !- Construction Name
  {d82d82b1-da6b-46ff-bf3e-b1b40522bdd4}, !- Space Name
  Outdoors,                               !- Outside Boundary Condition
  ,                                       !- Outside Boundary Condition Object
  SunExposed,                             !- Sun Exposure
  WindExposed,                            !- Wind Exposure
  ,                                       !- View Factor to Ground
  ,                                       !- Number of Vertices
  0, 4.44089209850063e-15, 4,             !- X,Y,Z Vertex 1 {m}
  1.07106781186548, 4.44089209850063e-15, 4, !- X,Y,Z Vertex 2 {m}
  4.07106781186548, 3, 4,                 !- X,Y,Z Vertex 3 {m}
  -3, 3, 4;                               !- X,Y,Z Vertex 4 {m}

OS:Space,
  {88cd4fbc-8e09-44fc-b5d7-52738c67b736}, !- Handle
  Story 1 East Perimeter Space,           !- Name
  ,                                       !- Space Type Name
  ,                                       !- Default Construction Set Name
  ,                                       !- Default Schedule Set Name
  -0,                                     !- Direction of Relative North {deg}
  4.07106781186548,                       !- X Origin {m}
  3,                                      !- Y Origin {m}
  0,                                      !- Z Origin {m}
  {9375d090-836e-44d4-9a08-84f83371b7c4}, !- Building Story Name
  {0e704c55-104f-4555-b525-e4f2f5b824e8}; !- Thermal Zone Name

OS:Surface,
  {fc487112-73ec-4187-bba3-8f06ec2f5202}, !- Handle
  Surface 13,                             !- Name
  Floor,                                  !- Surface Type
  ,                                       !- Construction Name
  {88cd4fbc-8e09-44fc-b5d7-52738c67b736}, !- Space Name
  Ground,                                 !- Outside Boundary Condition
  ,                                       !- Outside Boundary Condition Object
  NoSun,                                  !- Sun Exposure
  NoWind,                                 !- Wind Exposure
  ,                                       !- View Factor to Ground
  ,                                       !- Number of Vertices
  3, 4.07106781186548, 0,                 !- X,Y,Z Vertex 1 {m}
  3, -3, 0,                               !- X,Y,Z Vertex 2 {m}
  4.44089209850063e-15, 0, 0,             !- X,Y,Z Vertex 3 {m}
  4.44089209850063e-15, 1.07106781186548, 0; !- X,Y,Z Vertex 4 {m}

OS:Surface,
  {cd4595ef-1d98-4914-88ed-d0fdc593b03f}, !- Handle
  Surface 14,                             !- Name
  Wall,                                   !- Surface Type
  ,                                       !- Construction Name
  {88cd4fbc-8e09-44fc-b5d7-52738c67b736}, !- Space Name
  Outdoors,                               !- Outside Boundary Condition
  ,                                       !- Outside Boundary Condition Object
  SunExposed,                             !- Sun Exposure
  WindExposed,                            !- Wind Exposure
  ,                                       !- View Factor to Ground
  ,                                       !- Number of Vertices
  3, -3, 4,                               !- X,Y,Z Vertex 1 {m}
  3, -3, 0,                               !- X,Y,Z Vertex 2 {m}
  3, 4.07106781186548, 0,                 !- X,Y,Z Vertex 3 {m}
  3, 4.07106781186548, 4;                 !- X,Y,Z Vertex 4 {m}

OS:Surface,
  {999e26c9-9cd4-4506-9136-5017648dd020}, !- Handle
  Surface 15,                             !- Name
  Wall,                                   !- Surface Type
  ,                                       !- Construction Name
  {88cd4fbc-8e09-44fc-b5d7-52738c67b736}, !- Space Name
  Surface,                                !- Outside Boundary Condition
  {9ab22be0-61b7-443a-8d5c-77c47b044e85}, !- Outside Boundary Condition Object
  NoSun,                                  !- Sun Exposure
  NoWind,                                 !- Wind Exposure
  ,                                       !- View Factor to Ground
  ,                                       !- Number of Vertices
  4.44089209850063e-15, 0, 4,             !- X,Y,Z Vertex 1 {m}
  4.44089209850063e-15, 0, 0,             !- X,Y,Z Vertex 2 {m}
  3, -3, 0,                               !- X,Y,Z Vertex 3 {m}
  3, -3, 4;                               !- X,Y,Z Vertex 4 {m}

OS:Surface,
  {435db9e4-d503-4f21-bfb0-639aaa61bd0d}, !- Handle
  Surface 16,                             !- Name
  Wall,                                   !- Surface Type
  ,                                       !- Construction Name
  {88cd4fbc-8e09-44fc-b5d7-52738c67b736}, !- Space Name
  Surface,                                !- Outside Boundary Condition
  {1a8fb679-c8e9-40ae-8087-a8ef42b52d5f}, !- Outside Boundary Condition Object
  NoSun,                                  !- Sun Exposure
  NoWind,                                 !- Wind Exposure
  ,                                       !- View Factor to Ground
  ,                                       !- Number of Vertices
  4.44089209850063e-15, 1.07106781186548, 4, !- X,Y,Z Vertex 1 {m}
  4.44089209850063e-15, 1.07106781186548, 0, !- X,Y,Z Vertex 2 {m}
  4.44089209850063e-15, 0, 0,             !- X,Y,Z Vertex 3 {m}
  4.44089209850063e-15, 0, 4;             !- X,Y,Z Vertex 4 {m}

OS:Surface,
  {384bfb82-e700-4af6-852c-ea929e645660}, !- Handle
  Surface 17,                             !- Name
  Wall,                                   !- Surface Type
  ,                                       !- Construction Name
  {88cd4fbc-8e09-44fc-b5d7-52738c67b736}, !- Space Name
  Surface,                                !- Outside Boundary Condition
  {552ba18d-c140-4317-926b-d82967c59bd3}, !- Outside Boundary Condition Object
  NoSun,                                  !- Sun Exposure
  NoWind,                                 !- Wind Exposure
  ,                                       !- View Factor to Ground
  ,                                       !- Number of Vertices
  3, 4.07106781186548, 4,                 !- X,Y,Z Vertex 1 {m}
  3, 4.07106781186548, 0,                 !- X,Y,Z Vertex 2 {m}
  4.44089209850063e-15, 1.07106781186548, 0, !- X,Y,Z Vertex 3 {m}
  4.44089209850063e-15, 1.07106781186548, 4; !- X,Y,Z Vertex 4 {m}

OS:Surface,
  {16faae7a-e844-4ab5-81ef-cda7e9ed4e7d}, !- Handle
  Surface 18,                             !- Name
  RoofCeiling,                            !- Surface Type
  ,                                       !- Construction Name
  {88cd4fbc-8e09-44fc-b5d7-52738c67b736}, !- Space Name
  Outdoors,                               !- Outside Boundary Condition
  ,                                       !- Outside Boundary Condition Object
  SunExposed,                             !- Sun Exposure
  WindExposed,                            !- Wind Exposure
  ,                                       !- View Factor to Ground
  ,                                       !- Number of Vertices
  4.44089209850063e-15, 1.07106781186548, 4, !- X,Y,Z Vertex 1 {m}
  4.44089209850063e-15, 0, 4,             !- X,Y,Z Vertex 2 {m}
  3, -3, 4,                               !- X,Y,Z Vertex 3 {m}
  3, 4.07106781186548, 4;                 !- X,Y,Z Vertex 4 {m}

OS:Space,
  {a9ebe2f4-bad4-4322-92db-9d332fc84e56}, !- Handle
  Story 1 South Perimeter Space,          !- Name
  ,                                       !- Space Type Name
  ,                                       !- Default Construction Set Name
  ,                                       !- Default Schedule Set Name
  -0,                                     !- Direction of Relative North {deg}
  0,                                      !- X Origin {m}
  0,                                      !- Y Origin {m}
  0,                                      !- Z Origin {m}
  {9375d090-836e-44d4-9a08-84f83371b7c4}, !- Building Story Name
  {0252c88f-7e06-4ac6-907f-9ae678420585}; !- Thermal Zone Name

OS:Surface,
  {28dde94c-483d-49a0-9707-0c2fddd9d201}, !- Handle
  Surface 19,                             !- Name
  Floor,                                  !- Surface Type
  ,                                       !- Construction Name
  {a9ebe2f4-bad4-4322-92db-9d332fc84e56}, !- Space Name
  Ground,                                 !- Outside Boundary Condition
  ,                                       !- Outside Boundary Condition Object
  NoSun,                                  !- Sun Exposure
  NoWind,                                 !- Wind Exposure
  ,                                       !- View Factor to Ground
  ,                                       !- Number of Vertices
  7.07106781186548, 0, 0,                 !- X,Y,Z Vertex 1 {m}
  0, 0, 0,                                !- X,Y,Z Vertex 2 {m}
  3, 3, 0,                                !- X,Y,Z Vertex 3 {m}
  4.07106781186548, 3, 0;                 !- X,Y,Z Vertex 4 {m}

OS:Surface,
  {5a8abc8f-9589-4efa-b110-a5f37d055448}, !- Handle
  Surface 20,                             !- Name
  Wall,                                   !- Surface Type
  ,                                       !- Construction Name
  {a9ebe2f4-bad4-4322-92db-9d332fc84e56}, !- Space Name
  Outdoors,                               !- Outside Boundary Condition
  ,                                       !- Outside Boundary Condition Object
  SunExposed,                             !- Sun Exposure
  WindExposed,                            !- Wind Exposure
  ,                                       !- View Factor to Ground
  ,                                       !- Number of Vertices
  0, 0, 4,                                !- X,Y,Z Vertex 1 {m}
  0, 0, 0,                                !- X,Y,Z Vertex 2 {m}
  7.07106781186548, 0, 0,                 !- X,Y,Z Vertex 3 {m}
  7.07106781186548, 0, 4;                 !- X,Y,Z Vertex 4 {m}

OS:Surface,
  {f49958d8-3b20-4c74-9a61-a0a7fe759ab4}, !- Handle
  Surface 21,                             !- Name
  Wall,                                   !- Surface Type
  ,                                       !- Construction Name
  {a9ebe2f4-bad4-4322-92db-9d332fc84e56}, !- Space Name
  Surface,                                !- Outside Boundary Condition
  {20c47468-d7dd-4109-a476-4e7be8d19246}, !- Outside Boundary Condition Object
  NoSun,                                  !- Sun Exposure
  NoWind,                                 !- Wind Exposure
  ,                                       !- View Factor to Ground
  ,                                       !- Number of Vertices
  3, 3, 4,                                !- X,Y,Z Vertex 1 {m}
  3, 3, 0,                                !- X,Y,Z Vertex 2 {m}
  0, 0, 0,                                !- X,Y,Z Vertex 3 {m}
  0, 0, 4;                                !- X,Y,Z Vertex 4 {m}

OS:Surface,
  {0fc8ba9e-d068-45f0-8ac5-53132fbfe6aa}, !- Handle
  Surface 22,                             !- Name
  Wall,                                   !- Surface Type
  ,                                       !- Construction Name
  {a9ebe2f4-bad4-4322-92db-9d332fc84e56}, !- Space Name
  Surface,                                !- Outside Boundary Condition
  {03d03778-fda7-4adc-8c0a-cb76646e883a}, !- Outside Boundary Condition Object
  NoSun,                                  !- Sun Exposure
  NoWind,                                 !- Wind Exposure
  ,                                       !- View Factor to Ground
  ,                                       !- Number of Vertices
  4.07106781186548, 3, 4,                 !- X,Y,Z Vertex 1 {m}
  4.07106781186548, 3, 0,                 !- X,Y,Z Vertex 2 {m}
  3, 3, 0,                                !- X,Y,Z Vertex 3 {m}
  3, 3, 4;                                !- X,Y,Z Vertex 4 {m}

OS:Surface,
  {9ab22be0-61b7-443a-8d5c-77c47b044e85}, !- Handle
  Surface 23,                             !- Name
  Wall,                                   !- Surface Type
  ,                                       !- Construction Name
  {a9ebe2f4-bad4-4322-92db-9d332fc84e56}, !- Space Name
  Surface,                                !- Outside Boundary Condition
  {999e26c9-9cd4-4506-9136-5017648dd020}, !- Outside Boundary Condition Object
  NoSun,                                  !- Sun Exposure
  NoWind,                                 !- Wind Exposure
  ,                                       !- View Factor to Ground
  ,                                       !- Number of Vertices
  7.07106781186548, 0, 4,                 !- X,Y,Z Vertex 1 {m}
  7.07106781186548, 0, 0,                 !- X,Y,Z Vertex 2 {m}
  4.07106781186548, 3, 0,                 !- X,Y,Z Vertex 3 {m}
  4.07106781186548, 3, 4;                 !- X,Y,Z Vertex 4 {m}

OS:Surface,
  {437981d4-68d5-47c1-8ac7-236d420c6214}, !- Handle
  Surface 24,                             !- Name
  RoofCeiling,                            !- Surface Type
  ,                                       !- Construction Name
  {a9ebe2f4-bad4-4322-92db-9d332fc84e56}, !- Space Name
  Outdoors,                               !- Outside Boundary Condition
  ,                                       !- Outside Boundary Condition Object
  SunExposed,                             !- Sun Exposure
  WindExposed,                            !- Wind Exposure
  ,                                       !- View Factor to Ground
  ,                                       !- Number of Vertices
  4.07106781186548, 3, 4,                 !- X,Y,Z Vertex 1 {m}
  3, 3, 4,                                !- X,Y,Z Vertex 2 {m}
  0, 0, 4,                                !- X,Y,Z Vertex 3 {m}
  7.07106781186548, 0, 4;                 !- X,Y,Z Vertex 4 {m}

OS:Space,
  {8607604c-5b6d-4d47-8bf8-eba81a68d3b5}, !- Handle
  Story 1 Core Space,                     !- Name
  ,                                       !- Space Type Name
  ,                                       !- Default Construction Set Name
  ,                                       !- Default Schedule Set Name
  -0,                                     !- Direction of Relative North {deg}
  3,                                      !- X Origin {m}
  3,                                      !- Y Origin {m}
  0,                                      !- Z Origin {m}
  {9375d090-836e-44d4-9a08-84f83371b7c4}, !- Building Story Name
  {3023e288-4729-4d67-9c61-6a46cd0e9cae}; !- Thermal Zone Name

OS:Surface,
  {4e4a3ecb-d979-443f-b038-cf6d6329123f}, !- Handle
  Surface 25,                             !- Name
  Floor,                                  !- Surface Type
  ,                                       !- Construction Name
  {8607604c-5b6d-4d47-8bf8-eba81a68d3b5}, !- Space Name
  Ground,                                 !- Outside Boundary Condition
  ,                                       !- Outside Boundary Condition Object
  NoSun,                                  !- Sun Exposure
  NoWind,                                 !- Wind Exposure
  ,                                       !- View Factor to Ground
  ,                                       !- Number of Vertices
  0, 0, 0,                                !- X,Y,Z Vertex 1 {m}
  0, 1.07106781186548, 0,                 !- X,Y,Z Vertex 2 {m}
  1.07106781186548, 1.07106781186548, 0,  !- X,Y,Z Vertex 3 {m}
  1.07106781186548, 0, 0;                 !- X,Y,Z Vertex 4 {m}

OS:Surface,
  {31f85297-87a8-4479-b1ad-c24de86b0d42}, !- Handle
  Surface 26,                             !- Name
  Wall,                                   !- Surface Type
  ,                                       !- Construction Name
  {8607604c-5b6d-4d47-8bf8-eba81a68d3b5}, !- Space Name
  Surface,                                !- Outside Boundary Condition
  {8e314903-dd67-4348-b6a9-38ca8a92abca}, !- Outside Boundary Condition Object
  NoSun,                                  !- Sun Exposure
  NoWind,                                 !- Wind Exposure
  ,                                       !- View Factor to Ground
  ,                                       !- Number of Vertices
  0, 1.07106781186548, 4,                 !- X,Y,Z Vertex 1 {m}
  0, 1.07106781186548, 0,                 !- X,Y,Z Vertex 2 {m}
  0, 0, 0,                                !- X,Y,Z Vertex 3 {m}
  0, 0, 4;                                !- X,Y,Z Vertex 4 {m}

OS:Surface,
  {d946e4b6-df8d-4c13-a097-93bd05eac5ad}, !- Handle
  Surface 27,                             !- Name
  Wall,                                   !- Surface Type
  ,                                       !- Construction Name
  {8607604c-5b6d-4d47-8bf8-eba81a68d3b5}, !- Space Name
  Surface,                                !- Outside Boundary Condition
  {557b2580-577b-4506-8f10-6c65038bb270}, !- Outside Boundary Condition Object
  NoSun,                                  !- Sun Exposure
  NoWind,                                 !- Wind Exposure
  ,                                       !- View Factor to Ground
  ,                                       !- Number of Vertices
  1.07106781186548, 1.07106781186548, 4,  !- X,Y,Z Vertex 1 {m}
  1.07106781186548, 1.07106781186548, 0,  !- X,Y,Z Vertex 2 {m}
  0, 1.07106781186548, 0,                 !- X,Y,Z Vertex 3 {m}
  0, 1.07106781186548, 4;                 !- X,Y,Z Vertex 4 {m}

OS:Surface,
  {1a8fb679-c8e9-40ae-8087-a8ef42b52d5f}, !- Handle
  Surface 28,                             !- Name
  Wall,                                   !- Surface Type
  ,                                       !- Construction Name