
OS:Version,
  {3f853947-97c1-449b-ac29-ed80d409e6be}, !- Handle
  0.10.0;                                 !- Version Identifier

OS:BuildingStory,
  {b5819c1b-fb60-469c-b3b9-565f2d31d14b}, !- Handle
  Story 1,                                !- Name
  0,                                      !- Nominal Z Coordinate {m}
  4,                                      !- Nominal Floor to Floor Height {m}
  ,                                       !- Default Construction Set Name
  ,                                       !- Default Schedule Set Name
  ;                                       !- Group Rendering Name

OS:Space,
  {9d248f36-dc97-4a60-a46e-78fee35219fb}, !- Handle
  Story 1 West Perimeter Space,           !- Name
  ,                                       !- Space Type Name
  ,                                       !- Default Construction Set Name
  ,                                       !- Default Schedule Set Name
  -0,                                     !- Direction of Relative North {deg}
  0,                                      !- X Origin {m}
  0,                                      !- Y Origin {m}
  0,                                      !- Z Origin {m}
  {b5819c1b-fb60-469c-b3b9-565f2d31d14b}, !- Building Story Name
  {671a688b-8e0e-45e7-92cc-9f5b75c9039c}; !- Thermal Zone Name

OS:Surface,
  {00a3ba4d-a238-43e9-90b1-c8a5ad5d1859}, !- Handle
  Surface 1,                              !- Name
  Floor,                                  !- Surface Type
  ,                                       !- Construction Name
  {9d248f36-dc97-4a60-a46e-78fee35219fb}, !- Space Name
  Ground,                                 !- Outside Boundary Condition
  ,                                       !- Outside Boundary Condition Object
  NoSun,                                  !- Sun Exposure
  NoWind,                                 !- Wind Exposure
  ,                                       !- View Factor to Ground
  ,                                       !- Number of Vertices
  0, 0, 0,                                !- X,Y,Z Vertex 1 {m}
  0, 19.9749843554382, 0,                 !- X,Y,Z Vertex 2 {m}
  3, 16.9749843554382, 0,                 !- X,Y,Z Vertex 3 {m}
  3, 3, 0;                                !- X,Y,Z Vertex 4 {m}

OS:Surface,
  {684f45e1-b75f-4094-a42e-5b5ccb449317}, !- Handle
  Surface 2,                              !- Name
  Wall,                                   !- Surface Type
  ,                                       !- Construction Name
  {9d248f36-dc97-4a60-a46e-78fee35219fb}, !- Space Name
  Outdoors,                               !- Outside Boundary Condition
  ,                                       !- Outside Boundary Condition Object
  SunExposed,                             !- Sun Exposure
  WindExposed,                            !- Wind Exposure
  ,                                       !- View Factor to Ground
  ,                                       !- Number of Vertices
  0, 19.9749843554382, 4,                 !- X,Y,Z Vertex 1 {m}
  0, 19.9749843554382, 0,                 !- X,Y,Z Vertex 2 {m}
  0, 0, 0,                                !- X,Y,Z Vertex 3 {m}
  0, 0, 4;                                !- X,Y,Z Vertex 4 {m}

OS:Surface,
  {ffb826d7-dd86-4641-bfd0-67c33af06dc5}, !- Handle
  Surface 3,                              !- Name
  Wall,                                   !- Surface Type
  ,                                       !- Construction Name
  {9d248f36-dc97-4a60-a46e-78fee35219fb}, !- Space Name
  Surface,                                !- Outside Boundary Condition
  {74639cab-0d81-4f12-b4e7-9360b0989765}, !- Outside Boundary Condition Object
  NoSun,                                  !- Sun Exposure
  NoWind,                                 !- Wind Exposure
  ,                                       !- View Factor to Ground
  ,                                       !- Number of Vertices
  3, 16.9749843554382, 4,                 !- X,Y,Z Vertex 1 {m}
  3, 16.9749843554382, 0,                 !- X,Y,Z Vertex 2 {m}
  0, 19.9749843554382, 0,                 !- X,Y,Z Vertex 3 {m}
  0, 19.9749843554382, 4;                 !- X,Y,Z Vertex 4 {m}

OS:Surface,
  {2d2f6256-72af-4c87-8ad5-59607485e743}, !- Handle
  Surface 4,                              !- Name
  Wall,                                   !- Surface Type
  ,                                       !- Construction Name
  {9d248f36-dc97-4a60-a46e-78fee35219fb}, !- Space Name
  Surface,                                !- Outside Boundary Condition
  {c00cf5c2-025a-4c26-8a1c-b1b7aa25bdce}, !- Outside Boundary Condition Object
  NoSun,                                  !- Sun Exposure
  NoWind,                                 !- Wind Exposure
  ,                                       !- View Factor to Ground
  ,                                       !- Number of Vertices
  3, 3, 4,                                !- X,Y,Z Vertex 1 {m}
  3, 3, 0,                                !- X,Y,Z Vertex 2 {m}
  3, 16.9749843554382, 0,                 !- X,Y,Z Vertex 3 {m}
  3, 16.9749843554382, 4;                 !- X,Y,Z Vertex 4 {m}

OS:Surface,
  {728dadb8-01f5-4ad5-92ea-65bb291b4264}, !- Handle
  Surface 5,                              !- Name
  Wall,                                   !- Surface Type
  ,                                       !- Construction Name
  {9d248f36-dc97-4a60-a46e-78fee35219fb}, !- Space Name
  Surface,                                !- Outside Boundary Condition
  {38023fd8-5784-4f3d-bd33-c5668f164f19}, !- Outside Boundary Condition Object
  NoSun,                                  !- Sun Exposure
  NoWind,                                 !- Wind Exposure
  ,                                       !- View Factor to Ground
  ,                                       !- Number of Vertices
  0, 0, 4,                                !- X,Y,Z Vertex 1 {m}
  0, 0, 0,                                !- X,Y,Z Vertex 2 {m}
  3, 3, 0,                                !- X,Y,Z Vertex 3 {m}
  3, 3, 4;                                !- X,Y,Z Vertex 4 {m}

OS:Surface,
  {269e8816-e8fd-4778-8b8b-70c6d267d412}, !- Handle
  Surface 6,                              !- Name
  RoofCeiling,                            !- Surface Type
  ,                                       !- Construction Name
  {9d248f36-dc97-4a60-a46e-78fee35219fb}, !- Space Name
  Outdoors,                               !- Outside Boundary Condition
  ,                                       !- Outside Boundary Condition Object
  SunExposed,                             !- Sun Exposure
  WindExposed,                            !- Wind Exposure
  ,                                       !- View Factor to Ground
  ,                                       !- Number of Vertices
  3, 3, 4,                                !- X,Y,Z Vertex 1 {m}
  3, 16.9749843554382, 4,                 !- X,Y,Z Vertex 2 {m}
  0, 19.9749843554382, 4,                 !- X,Y,Z Vertex 3 {m}
  0, 0, 4;                                !- X,Y,Z Vertex 4 {m}

OS:Space,
  {4402ce80-e95b-43a5-83b0-9529fe0ddb23}, !- Handle
  Story 1 North Perimeter Space,          !- Name
  ,                                       !- Space Type Name
  ,                                       !- Default Construction Set Name
  ,                                       !- Default Schedule Set Name
  -0,                                     !- Direction of Relative North {deg}
  3,                                      !- X Origin {m}
  16.9749843554382,                       !- Y Origin {m}
  0,                                      !- Z Origin {m}
  {b5819c1b-fb60-469c-b3b9-565f2d31d14b}, !- Building Story Name
  {1857f668-25fa-4222-ad8c-f3a36ea2e302}; !- Thermal Zone Name

OS:Surface,
  {73dc9f93-5aa7-43de-93c9-03509c2392bf}, !- Handle
  Surface 7,                              !- Name
  Floor,                                  !- Surface Type
  ,                                       !- Construction Name
  {4402ce80-e95b-43a5-83b0-9529fe0ddb23}, !- Space Name
  Ground,                                 !- Outside Boundary Condition
  ,                                       !- Outside Boundary Condition Object
  NoSun,                                  !- Sun Exposure
  NoWind,                                 !- Wind Exposure
  ,                                       !- View Factor to Ground
  ,                                       !- Number of Vertices
  -3, 3.00000000000002, 0,                !- X,Y,Z Vertex 1 {m}
  16.9749843554382, 3.00000000000002, 0,  !- X,Y,Z Vertex 2 {m}
  13.9749843554382, 2.1316282072803e-14, 0, !- X,Y,Z Vertex 3 {m}
  0, 2.1316282072803e-14, 0;              !- X,Y,Z Vertex 4 {m}

OS:Surface,
  {7ead41c7-bee4-4704-96e9-19e211723137}, !- Handle
  Surface 8,                              !- Name
  Wall,                                   !- Surface Type
  ,                                       !- Construction Name
  {4402ce80-e95b-43a5-83b0-9529fe0ddb23}, !- Space Name
  Outdoors,                               !- Outside Boundary Condition
  ,                                       !- Outside Boundary Condition Object
  SunExposed,                             !- Sun Exposure
  WindExposed,                            !- Wind Exposure
  ,                                       !- View Factor to Ground
  ,                                       !- Number of Vertices
  16.9749843554382, 3.00000000000002, 4,  !- X,Y,Z Vertex 1 {m}
  16.9749843554382, 3.00000000000002, 0,  !- X,Y,Z Vertex 2 {m}
  -3, 3.00000000000002, 0,                !- X,Y,Z Vertex 3 {m}
  -3, 3.00000000000002, 4;                !- X,Y,Z Vertex 4 {m}

OS:Surface,
  {1f83d7a8-18a5-49b6-8731-0284ed9e3e5a}, !- Handle
  Surface 9,                              !- Name
  Wall,                                   !- Surface Type
  ,                                       !- Construction Name
  {4402ce80-e95b-43a5-83b0-9529fe0ddb23}, !- Space Name
  Surface,                                !- Outside Boundary Condition
  {9f25e6d1-37ce-41f6-9cb9-b663cc894901}, !- Outside Boundary Condition Object
  NoSun,                                  !- Sun Exposure
  NoWind,                                 !- Wind Exposure
  ,                                       !- View Factor to Ground
  ,                                       !- Number of Vertices
  13.9749843554382, 2.1316282072803e-14, 4, !- X,Y,Z Vertex 1 {m}
  13.9749843554382, 2.1316282072803e-14, 0, !- X,Y,Z Vertex 2 {m}
  16.9749843554382, 3.00000000000002, 0,  !- X,Y,Z Vertex 3 {m}
  16.9749843554382, 3.00000000000002, 4;  !- X,Y,Z Vertex 4 {m}

OS:Surface,
  {6db58cdc-4098-43f0-ba68-cb4502f109d5}, !- Handle
  Surface 10,                             !- Name
  Wall,                                   !- Surface Type
  ,                                       !- Construction Name
  {4402ce80-e95b-43a5-83b0-9529fe0ddb23}, !- Space Name
  Surface,                                !- Outside Boundary Condition
  {0210ba21-99b6-486f-9604-2a4054893ae0}, !- Outside Boundary Condition Object
  NoSun,                                  !- Sun Exposure
  NoWind,                                 !- Wind Exposure
  ,                                       !- View Factor to Ground
  ,                                       !- Number of Vertices
  0, 2.1316282072803e-14, 4,              !- X,Y,Z Vertex 1 {m}
  0, 2.1316282072803e-14, 0,              !- X,Y,Z Vertex 2 {m}
  13.9749843554382, 2.1316282072803e-14, 0, !- X,Y,Z Vertex 3 {m}
  13.9749843554382, 2.1316282072803e-14, 4; !- X,Y,Z Vertex 4 {m}

OS:Surface,
  {74639cab-0d81-4f12-b4e7-9360b0989765}, !- Handle
  Surface 11,                             !- Name
  Wall,                                   !- Surface Type
  ,                                       !- Construction Name
  {4402ce80-e95b-43a5-83b0-9529fe0ddb23}, !- Space Name
  Surface,                                !- Outside Boundary Condition
  {ffb826d7-dd86-4641-bfd0-67c33af06dc5}, !- Outside Boundary Condition Object
  NoSun,                                  !- Sun Exposure
  NoWind,                                 !- Wind Exposure
  ,                                       !- View Factor to Ground
  ,                                       !- Number of Vertices
  -3, 3.00000000000002, 4,                !- X,Y,Z Vertex 1 {m}
  -3, 3.00000000000002, 0,                !- X,Y,Z Vertex 2 {m}
  0, 2.1316282072803e-14, 0,              !- X,Y,Z Vertex 3 {m}
  0, 2.1316282072803e-14, 4;              !- X,Y,Z Vertex 4 {m}

OS:Surface,
  {639227cc-c51f-4a1e-a909-d5c40a3cb459}, !- Handle
  Surface 12,                             !- Name
  RoofCeiling,                            !- Surface Type
  ,                                       !- Construction Name
  {4402ce80-e95b-43a5-83b0-9529fe0ddb23}, !- Space Name
  Outdoors,                               !- Outside Boundary Condition
  ,                                       !- Outside Boundary Condition Object
  SunExposed,                             !- Sun Exposure
  WindExposed,                            !- Wind Exposure
  ,                                       !- View Factor to Ground
  ,                                       !- Number of Vertices
  0, 2.1316282072803e-14, 4,              !- X,Y,Z Vertex 1 {m}
  13.9749843554382, 2.1316282072803e-14, 4, !- X,Y,Z Vertex 2 {m}
  16.9749843554382, 3.00000000000002, 4,  !- X,Y,Z Vertex 3 {m}
  -3, 3.00000000000002, 4;                !- X,Y,Z Vertex 4 {m}

OS:Space,
  {270c851e-3d48-4b3d-9ed0-37dd21be71c4}, !- Handle
  Story 1 East Perimeter Space,           !- Name
  ,                                       !- Space Type Name
  ,                                       !- Default Construction Set Name
  ,                                       !- Default Schedule Set Name
  -0,                                     !- Direction of Relative North {deg}
  16.9749843554382,                       !- X Origin {m}
  3,                                      !- Y Origin {m}
  0,                                      !- Z Origin {m}
  {b5819c1b-fb60-469c-b3b9-565f2d31d14b}, !- Building Story Name
  {7f1b875f-f8b0-4b2a-9f01-113144ce0f8a}; !- Thermal Zone Name

OS:Surface,
  {d05fd90e-2d97-4285-b843-55e80f768beb}, !- Handle
  Surface 13,                             !- Name
  Floor,                                  !- Surface Type
  ,                                       !- Construction Name
  {270c851e-3d48-4b3d-9ed0-37dd21be71c4}, !- Space Name
  Ground,                                 !- Outside Boundary Condition
  ,                                       !- Outside Boundary Condition Object
  NoSun,                                  !- Sun Exposure
  NoWind,                                 !- Wind Exposure
  ,                                       !- View Factor to Ground
  ,                                       !- Number of Vertices
  3.00000000000002, 16.9749843554382, 0,  !- X,Y,Z Vertex 1 {m}
  3.00000000000002, -3, 0,                !- X,Y,Z Vertex 2 {m}
  2.1316282072803e-14, 0, 0,              !- X,Y,Z Vertex 3 {m}
  2.1316282072803e-14, 13.9749843554382, 0; !- X,Y,Z Vertex 4 {m}

OS:Surface,
  {a6043ad0-a8b4-472a-a97e-bc190771ad11}, !- Handle
  Surface 14,                             !- Name
  Wall,                                   !- Surface Type
  ,                                       !- Construction Name
  {270c851e-3d48-4b3d-9ed0-37dd21be71c4}, !- Space Name
  Outdoors,                               !- Outside Boundary Condition
  ,                                       !- Outside Boundary Condition Object
  SunExposed,                             !- Sun Exposure
  WindExposed,                            !- Wind Exposure
  ,                                       !- View Factor to Ground
  ,                                       !- Number of Vertices
  3.00000000000002, -3, 4,                !- X,Y,Z Vertex 1 {m}
  3.00000000000002, -3, 0,                !- X,Y,Z Vertex 2 {m}
  3.00000000000002, 16.9749843554382, 0,  !- X,Y,Z Vertex 3 {m}
  3.00000000000002, 16.9749843554382, 4;  !- X,Y,Z Vertex 4 {m}

OS:Surface,
  {1558cc7c-f3d5-4e1a-8e94-6f8ad1e08d05}, !- Handle
  Surface 15,                             !- Name
  Wall,                                   !- Surface Type
  ,                                       !- Construction Name
  {270c851e-3d48-4b3d-9ed0-37dd21be71c4}, !- Space Name
  Surface,                                !- Outside Boundary Condition
  {10ff6147-3630-42fd-8d29-fcd0719881d3}, !- Outside Boundary Condition Object
  NoSun,                                  !- Sun Exposure
  NoWind,                                 !- Wind Exposure
  ,                                       !- View Factor to Ground
  ,                                       !- Number of Vertices
  2.1316282072803e-14, 0, 4,              !- X,Y,Z Vertex 1 {m}
  2.1316282072803e-14, 0, 0,              !- X,Y,Z Vertex 2 {m}
  3.00000000000002, -3, 0,                !- X,Y,Z Vertex 3 {m}
  3.00000000000002, -3, 4;                !- X,Y,Z Vertex 4 {m}

OS:Surface,
  {edcd64fa-8068-451c-a4cd-bcc23cca9c59}, !- Handle
  Surface 16,                             !- Name
  Wall,                                   !- Surface Type
  ,                                       !- Construction Name
  {270c851e-3d48-4b3d-9ed0-37dd21be71c4}, !- Space Name
  Surface,                                !- Outside Boundary Condition
  {dfbb904b-4a71-4971-ad03-beadaf6a74a8}, !- Outside Boundary Condition Object
  NoSun,                                  !- Sun Exposure
  NoWind,                                 !- Wind Exposure
  ,                                       !- View Factor to Ground
  ,                                       !- Number of Vertices
  2.1316282072803e-14, 13.9749843554382, 4, !- X,Y,Z Vertex 1 {m}
  2.1316282072803e-14, 13.9749843554382, 0, !- X,Y,Z Vertex 2 {m}
  2.1316282072803e-14, 0, 0,              !- X,Y,Z Vertex 3 {m}
  2.1316282072803e-14, 0, 4;              !- X,Y,Z Vertex 4 {m}

OS:Surface,
  {9f25e6d1-37ce-41f6-9cb9-b663cc894901}, !- Handle
  Surface 17,                             !- Name
  Wall,                                   !- Surface Type
  ,                                       !- Construction Name
  {270c851e-3d48-4b3d-9ed0-37dd21be71c4}, !- Space Name
  Surface,                                !- Outside Boundary Condition
  {1f83d7a8-18a5-49b6-8731-0284ed9e3e5a}, !- Outside Boundary Condition Object
  NoSun,                                  !- Sun Exposure
  NoWind,                                 !- Wind Exposure
  ,                                       !- View Factor to Ground
  ,                                       !- Number of Vertices
  3.00000000000002, 16.9749843554382, 4,  !- X,Y,Z Vertex 1 {m}
  3.00000000000002, 16.9749843554382, 0,  !- X,Y,Z Vertex 2 {m}
  2.1316282072803e-14, 13.9749843554382, 0, !- X,Y,Z Vertex 3 {m}
  2.1316282072803e-14, 13.9749843554382, 4; !- X,Y,Z Vertex 4 {m}

OS:Surface,
  {b41988cb-3dc8-4467-b3f8-a089c4ac61bb}, !- Handle
  Surface 18,                             !- Name
  RoofCeiling,                            !- Surface Type
  ,                                       !- Construction Name
  {270c851e-3d48-4b3d-9ed0-37dd21be71c4}, !- Space Name
  Outdoors,                               !- Outside Boundary Condition
  ,                                       !- Outside Boundary Condition Object
  SunExposed,                             !- Sun Exposure
  WindExposed,                            !- Wind Exposure
  ,                                       !- View Factor to Ground
  ,                                       !- Number of Vertices
  2.1316282072803e-14, 13.9749843554382, 4, !- X,Y,Z Vertex 1 {m}
  2.1316282072803e-14, 0, 4,              !- X,Y,Z Vertex 2 {m}
  3.00000000000002, -3, 4,                !- X,Y,Z Vertex 3 {m}
  3.00000000000002, 16.9749843554382, 4;  !- X,Y,Z Vertex 4 {m}

OS:Space,
  {f50d1f2a-9c3b-4389-82cb-e647000c13e6}, !- Handle
  Story 1 South Perimeter Space,          !- Name
  ,                                       !- Space Type Name
  ,                                       !- Default Construction Set Name
  ,                                       !- Default Schedule Set Name
  -0,                                     !- Direction of Relative North {deg}
  0,                                      !- X Origin {m}
  0,                                      !- Y Origin {m}
  0,                                      !- Z Origin {m}
  {b5819c1b-fb60-469c-b3b9-565f2d31d14b}, !- Building Story Name
  {8a983988-9ba2-4db5-b5ad-e3cf8e57b862}; !- Thermal Zone Name

OS:Surface,
  {fa016a07-05bb-40f1-a55b-350b5f4e6b2e}, !- Handle
  Surface 19,                             !- Name
  Floor,                                  !- Surface Type
  ,                                       !- Construction Name
  {f50d1f2a-9c3b-4389-82cb-e647000c13e6}, !- Space Name
  Ground,                                 !- Outside Boundary Condition
  ,                                       !- Outside Boundary Condition Object
  NoSun,                                  !- Sun Exposure
  NoWind,                                 !- Wind Exposure
  ,                                       !- View Factor to Ground
  ,                                       !- Number of Vertices
  19.9749843554382, 0, 0,                 !- X,Y,Z Vertex 1 {m}
  0, 0, 0,                                !- X,Y,Z Vertex 2 {m}
  3, 3, 0,                                !- X,Y,Z Vertex 3 {m}
  16.9749843554382, 3, 0;                 !- X,Y,Z Vertex 4 {m}

OS:Surface,
  {3bfca426-5d81-426a-a597-1f06780394de}, !- Handle
  Surface 20,                             !- Name
  Wall,                                   !- Surface Type
  ,                                       !- Construction Name
  {f50d1f2a-9c3b-4389-82cb-e647000c13e6}, !- Space Name
  Outdoors,                               !- Outside Boundary Condition
  ,                                       !- Outside Boundary Condition Object
  SunExposed,                             !- Sun Exposure
  WindExposed,                            !- Wind Exposure
  ,                                       !- View Factor to Ground
  ,                                       !- Number of Vertices
  0, 0, 4,                                !- X,Y,Z Vertex 1 {m}
  0, 0, 0,                                !- X,Y,Z Vertex 2 {m}
  19.9749843554382, 0, 0,                 !- X,Y,Z Vertex 3 {m}
  19.9749843554382, 0, 4;                 !- X,Y,Z Vertex 4 {m}

OS:Surface,
  {38023fd8-5784-4f3d-bd33-c5668f164f19}, !- Handle
  Surface 21,                             !- Name
  Wall,                                   !- Surface Type
  ,                                       !- Construction Name
  {f50d1f2a-9c3b-4389-82cb-e647000c13e6}, !- Space Name
  Surface,                                !- Outside Boundary Condition
  {728dadb8-01f5-4ad5-92ea-65bb291b4264}, !- Outside Boundary Condition Object
  NoSun,                                  !- Sun Exposure
  NoWind,                                 !- Wind Exposure
  ,                                       !- View Factor to Ground
  ,                                       !- Number of Vertices
  3, 3, 4,                                !- X,Y,Z Vertex 1 {m}
  3, 3, 0,                                !- X,Y,Z Vertex 2 {m}
  0, 0, 0,                                !- X,Y,Z Vertex 3 {m}
  0, 0, 4;                                !- X,Y,Z Vertex 4 {m}

OS:Surface,
  {c675d5e1-bb67-4a90-ab62-d5f27fa941bc}, !- Handle
  Surface 22,                             !- Name
  Wall,                                   !- Surface Type
  ,                                       !- Construction Name
  {f50d1f2a-9c3b-4389-82cb-e647000c13e6}, !- Space Name
  Surface,                                !- Outside Boundary Condition
  {9651f8d0-7ffd-477f-bbe6-02c5db37567e}, !- Outside Boundary Condition Object
  NoSun,                                  !- Sun Exposure
  NoWind,                                 !- Wind Exposure
  ,                                       !- View Factor to Ground
  ,                                       !- Number of Vertices
  16.9749843554382, 3, 4,                 !- X,Y,Z Vertex 1 {m}
  16.9749843554382, 3, 0,                 !- X,Y,Z Vertex 2 {m}
  3, 3, 0,                                !- X,Y,Z Vertex 3 {m}
  3, 3, 4;                                !- X,Y,Z Vertex 4 {m}

OS:Surface,
  {10ff6147-3630-42fd-8d29-fcd0719881d3}, !- Handle
  Surface 23,                             !- Name
  Wall,                                   !- Surface Type
  ,                                       !- Construction Name
  {f50d1f2a-9c3b-4389-82cb-e647000c13e6}, !- Space Name
  Surface,                                !- Outside Boundary Condition
  {1558cc7c-f3d5-4e1a-8e94-6f8ad1e08d05}, !- Outside Boundary Condition Object
  NoSun,                                  !- Sun Exposure
  NoWind,                                 !- Wind Exposure
  ,                                       !- View Factor to Ground
  ,                                       !- Number of Vertices
  19.9749843554382, 0, 4,                 !- X,Y,Z Vertex 1 {m}
  19.9749843554382, 0, 0,                 !- X,Y,Z Vertex 2 {m}
  16.9749843554382, 3, 0,                 !- X,Y,Z Vertex 3 {m}
  16.9749843554382, 3, 4;                 !- X,Y,Z Vertex 4 {m}

OS:Surface,
  {dff73a40-21e0-4c99-801f-edf3710a0b81}, !- Handle
  Surface 24,                             !- Name
  RoofCeiling,                            !- Surface Type
  ,                                       !- Construction Name
  {f50d1f2a-9c3b-4389-82cb-e647000c13e6}, !- Space Name
  Outdoors,                               !- Outside Boundary Condition
  ,                                       !- Outside Boundary Condition Object
  SunExposed,                             !- Sun Exposure
  WindExposed,                            !- Wind Exposure
  ,                                       !- View Factor to Ground
  ,                                       !- Number of Vertices
  16.9749843554382, 3, 4,                 !- X,Y,Z Vertex 1 {m}
  3, 3, 4,                                !- X,Y,Z Vertex 2 {m}
  0, 0, 4,                                !- X,Y,Z Vertex 3 {m}
  19.9749843554382, 0, 4;                 !- X,Y,Z Vertex 4 {m}

OS:Space,
  {09d77fd4-98cb-486f-94c7-fdf8ef08b8a9}, !- Handle
  Story 1 Core Space,                     !- Name
  ,                                       !- Space Type Name
  ,                                       !- Default Construction Set Name
  ,                                       !- Default Schedule Set Name
  -0,                                     !- Direction of Relative North {deg}
  3,                                      !- X Origin {m}
  3,                                      !- Y Origin {m}
  0,                                      !- Z Origin {m}
  {b5819c1b-fb60-469c-b3b9-565f2d31d14b}, !- Building Story Name
  {c59b4195-a3cf-447d-8115-5fed1d1e08ae}; !- Thermal Zone Name

OS:Surface,
  {070a45ad-5210-4a64-bec2-fe139ac5e918}, !- Handle
  Surface 25,                             !- Name
  Floor,                                  !- Surface Type
  ,                                       !- Construction Name
  {09d77fd4-98cb-486f-94c7-fdf8ef08b8a9}, !- Space Name
  Ground,                                 !- Outside Boundary Condition
  ,                                       !- Outside Boundary Condition Object
  NoSun,                                  !- Sun Exposure
  NoWind,                                 !- Wind Exposure
  ,                                       !- View Factor to Ground
  ,                                       !- Number of Vertices
  0, 0, 0,                                !- X,Y,Z Vertex 1 {m}
  0, 13.9749843554382, 0,                 !- X,Y,Z Vertex 2 {m}
  13.9749843554382, 13.9749843554382, 0,  !- X,Y,Z Vertex 3 {m}
  13.9749843554382, 0, 0;                 !- X,Y,Z Vertex 4 {m}

OS:Surface,
  {c00cf5c2-025a-4c26-8a1c-b1b7aa25bdce}, !- Handle
  Surface 26,                             !- Name
  Wall,                                   !- Surface Type
  ,                                       !- Construction Name
  {09d77fd4-98cb-486f-94c7-fdf8ef08b8a9}, !- Space Name
  Surface,                                !- Outside Boundary Condition
  {2d2f6256-72af-4c87-8ad5-59607485e743}, !- Outside Boundary Condition Object
  NoSun,                                  !- Sun Exposure
  NoWind,                                 !- Wind Exposure
  ,                                       !- View Factor to Ground
  ,                                       !- Number of Vertices
  0, 13.9749843554382, 4,                 !- X,Y,Z Vertex 1 {m}
  0, 13.9749843554382, 0,                 !- X,Y,Z Vertex 2 {m}
  0, 0, 0,                                !- X,Y,Z Vertex 3 {m}
  0, 0, 4;                                !- X,Y,Z Vertex 4 {m}

OS:Surface,
  {0210ba21-99b6-486f-9604-2a4054893ae0}, !- Handle
  Surface 27,                             !- Name
  Wall,                                   !- Surface Type
  ,                                       !- Construction Name
  {09d77fd4-98cb-486f-94c7-fdf8ef08b8a9}, !- Space Name
  Surface,                                !- Outside Boundary Condition
  {6db58cdc-4098-43f0-ba68-cb4502f109d5}, !- Outside Boundary Condition Object
  NoSun,                                  !- Sun Exposure
  NoWind,                                 !- Wind Exposure
  ,                                       !- View Factor to Ground
  ,                                       !- Number of Vertices
  13.9749843554382, 13.9749843554382, 4,  !- X,Y,Z Vertex 1 {m}
  13.9749843554382, 13.9749843554382, 0,  !- X,Y,Z Vertex 2 {m}
  0, 13.9749843554382, 0,                 !- X,Y,Z Vertex 3 {m}
  0, 13.9749843554382, 4;                 !- X,Y,Z Vertex 4 {m}

OS:Surface,
  {dfbb904b-4a71-4971-ad03-beadaf6a74a8}, !- Handle
  Surface 28,                             !- Name
  Wall,                                   !- Surface Type
  ,                                       !- Construction Name