
OS:Version,
  {ee28ed88-321b-428e-8fed-92bdb1a3d042}, !- Handle
  0.10.0;                                 !- Version Identifier

OS:Schedule:Ruleset,
  {b49ddf6b-6854-4437-93e5-11b2e085c179}, !- Handle
  Always_On,                              !- Name
  {0a39fa17-fb9f-4569-9c2d-3e6067b0f5c5}, !- Schedule Type Limits Name
  {6fdda7d8-307a-4009-870d-0855bb740727}, !- Default Day Schedule Name
  {93d6d2de-b9a5-40be-be79-7298cd72321d}, !- Summer Design Day Schedule Name
  {47dde899-e00f-4124-a01e-afd406e95d90}; !- Winter Design Day Schedule Name

OS:Schedule:Day,
  {6fdda7d8-307a-4009-870d-0855bb740727}, !- Handle
  Always_On_Default,                      !- Name
  {0a39fa17-fb9f-4569-9c2d-3e6067b0f5c5}, !- Schedule Type Limits Name
  ,                                       !- Interpolate to Timestep
  24,                                     !- Hour 1
  0,                                      !- Minute 1
  1;                                      !- Value Until Time 1

OS:Schedule:Day,
  {93d6d2de-b9a5-40be-be79-7298cd72321d}, !- Handle
  Always_On_Summer_Design_Day,            !- Name
  {0a39fa17-fb9f-4569-9c2d-3e6067b0f5c5}, !- Schedule Type Limits Name
  ,                                       !- Interpolate to Timestep
  24,                                     !- Hour 1
  0,                                      !- Minute 1
  1;                                      !- Value Until Time 1

OS:Schedule:Day,
  {47dde899-e00f-4124-a01e-afd406e95d90}, !- Handle
  Always_On_Winter_Design_Day,            !- Name
  {0a39fa17-fb9f-4569-9c2d-3e6067b0f5c5}, !- Schedule Type Limits Name
  ,                                       !- Interpolate to Timestep
  24,                                     !- Hour 1
  0,                                      !- Minute 1
  1;                                      !- Value Until Time 1

OS:Schedule:Ruleset,
  {6684942d-b5fc-46a9-b0d6-10e81588abb3}, !- Handle
  Deck_Temperature,                       !- Name
  {49d62d08-f0fb-45aa-8023-6581dcf230b2}, !- Schedule Type Limits Name
  {6860c405-ffa9-400b-897a-451189120ce0}, !- Default Day Schedule Name
  {476e5bbf-3e64-4dc7-92f2-070555f9a18c}, !- Summer Design Day Schedule Name
  {78d78fea-ff67-4919-a30f-a21fc3907103}; !- Winter Design Day Schedule Name

OS:Schedule:Day,
  {6860c405-ffa9-400b-897a-451189120ce0}, !- Handle
  Deck_Temperature_Default,               !- Name
  {49d62d08-f0fb-45aa-8023-6581dcf230b2}, !- Schedule Type Limits Name
  ,                                       !- Interpolate to Timestep
  24,                                     !- Hour 1
  0,                                      !- Minute 1
  12.8;                                   !- Value Until Time 1

OS:Schedule:Day,
  {476e5bbf-3e64-4dc7-92f2-070555f9a18c}, !- Handle
  Deck_Temperature_Summer_Design_Day,     !- Name
  {49d62d08-f0fb-45aa-8023-6581dcf230b2}, !- Schedule Type Limits Name
  ,                                       !- Interpolate to Timestep
  24,                                     !- Hour 1
  0,                                      !- Minute 1
  12.8;                                   !- Value Until Time 1

OS:Schedule:Day,
  {78d78fea-ff67-4919-a30f-a21fc3907103}, !- Handle
  Deck_Temperature_Winter_Design_Day,     !- Name
  {49d62d08-f0fb-45aa-8023-6581dcf230b2}, !- Schedule Type Limits Name
  ,                                       !- Interpolate to Timestep
  24,                                     !- Hour 1
  0,                                      !- Minute 1
  12.8;                                   !- Value Until Time 1

OS:Schedule:Ruleset,
  {e3bb6059-789a-4bfb-9672-36365354db6f}, !- Handle
  Hot_Water_Temperature,                  !- Name
  {788da7ab-ec4b-4e97-b0c4-f9e56acd2132}, !- Schedule Type Limits Name
  {2cb5a1a6-a6b5-466d-a412-f255348ef48d}, !- Default Day Schedule Name
  {fb4e96d1-b45b-4715-a789-37601292d67a}, !- Summer Design Day Schedule Name
  {603804a3-1aa0-41c5-87c1-462e1103c0cb}; !- Winter Design Day Schedule Name

OS:Schedule:Day,
  {2cb5a1a6-a6b5-466d-a412-f255348ef48d}, !- Handle
  Hot_Water_Temperature_Default,          !- Name
  {788da7ab-ec4b-4e97-b0c4-f9e56acd2132}, !- Schedule Type Limits Name
  ,                                       !- Interpolate to Timestep
  24,                                     !- Hour 1
  0,                                      !- Minute 1
  67;                                     !- Value Until Time 1

OS:Schedule:Day,
  {fb4e96d1-b45b-4715-a789-37601292d67a}, !- Handle
  Hot_Water_Temperature_Summer_Design_Day, !- Name
  {788da7ab-ec4b-4e97-b0c4-f9e56acd2132}, !- Schedule Type Limits Name
  ,                                       !- Interpolate to Timestep
  24,                                     !- Hour 1
  0,                                      !- Minute 1
  67;                                     !- Value Until Time 1

OS:Schedule:Day,
  {603804a3-1aa0-41c5-87c1-462e1103c0cb}, !- Handle
  Hot_Water_Temperature_Winter_Design_Day, !- Name
  {788da7ab-ec4b-4e97-b0c4-f9e56acd2132}, !- Schedule Type Limits Name
  ,                                       !- Interpolate to Timestep
  24,                                     !- Hour 1
  0,                                      !- Minute 1
  67;                                     !- Value Until Time 1

OS:Schedule:Ruleset,
  {a7d3ffe2-1256-44a3-bb02-b2b9e2ab0951}, !- Handle
  Chilled_Water_Temperature,              !- Name
  ,                                       !- Schedule Type Limits Name
  {9f6c5eb6-ae8b-4f0c-9bce-1d7cd69f5170}, !- Default Day Schedule Name
  {721973e6-5179-4011-823b-27261d052f29}, !- Summer Design Day Schedule Name
  {2dbdef52-8810-42f6-bb4e-d3d44755c142}; !- Winter Design Day Schedule Name

OS:Schedule:Day,
  {9f6c5eb6-ae8b-4f0c-9bce-1d7cd69f5170}, !- Handle
  Chilled_Water_Temperature_Default,      !- Name
  ,                                       !- Schedule Type Limits Name
  ,                                       !- Interpolate to Timestep
  24,                                     !- Hour 1
  0,                                      !- Minute 1
  6.7;                                    !- Value Until Time 1

OS:Schedule:Day,
  {721973e6-5179-4011-823b-27261d052f29}, !- Handle
  Chilled_Water_Temperature_Summer_Design_Day, !- Name
  ,                                       !- Schedule Type Limits Name
  ,                                       !- Interpolate to Timestep
  24,                                     !- Hour 1
  0,                                      !- Minute 1
  6.7;                                    !- Value Until Time 1

OS:Schedule:Day,
  {2dbdef52-8810-42f6-bb4e-d3d44755c142}, !- Handle
  Chilled_Water_Temperature_Winter_Design_Day, !- Name
  ,                                       !- Schedule Type Limits Name
  ,                                       !- Interpolate to Timestep
  24,                                     !- Hour 1
  0,                                      !- Minute 1
  6.7;                                    !- Value Until Time 1

OS:AirLoopHVAC,
  {c4b17677-9b6a-4ad2-9228-9c032a40dc2f}, !- Handle
  Air Loop HVAC 1,                        !- Name
  ,                                       !- Controller List Name
  ,                                       !- Availability Manager List Name
  AutoSize,                               !- Design Supply Air Flow Rate {m3/s}
  ,                                       !- Branch List Name
  ,                                       !- Connector List Name
  {81fb56d4-5f3e-4208-a826-1a53697682d2}, !- Supply Side Inlet Node Name
  {cbb5146e-c52f-4b74-a797-8a7e419f3c08}, !- Demand Side Outlet Node Name
  {6d9df652-f16c-4df0-b5d0-a3bd6bc1e396}, !- Demand Side Inlet Node Names
  {89cca308-6b3d-43f1-939b-d05c911c51d6}; !- Supply Side Outlet Node Names

OS:Node,
  {a80c3708-f9e9-4e77-a4f6-3a279cc84ac1}, !- Handle
  Node 1,                                 !- Name
  {81fb56d4-5f3e-4208-a826-1a53697682d2}, !- Inlet Port
  {2c88080b-a4cd-405d-8c4b-17fb9e4c69a8}; !- Outlet Port

OS:Node,
  {d9503798-9b7c-46d8-9828-b2fc557a6e81}, !- Handle
  Node 2,                                 !- Name
  {11a20bcc-de67-4ac5-861a-4783eb2a1c72}, !- Inlet Port
  {89cca308-6b3d-43f1-939b-d05c911c51d6}; !- Outlet Port

OS:Connection,
  {81fb56d4-5f3e-4208-a826-1a53697682d2}, !- Handle
  Connection 1,                           !- Name
  {c4b17677-9b6a-4ad2-9228-9c032a40dc2f}, !- Source Object
  7,                                      !- Outlet Port
  {a80c3708-f9e9-4e77-a4f6-3a279cc84ac1}, !- Target Object
  2;                                      !- Inlet Port

OS:Connection,
  {89cca308-6b3d-43f1-939b-d05c911c51d6}, !- Handle
  Connection 3,                           !- Name
  {d9503798-9b7c-46d8-9828-b2fc557a6e81}, !- Source Object
  3,                                      !- Outlet Port
  {c4b17677-9b6a-4ad2-9228-9c032a40dc2f}, !- Target Object
  10;                                     !- Inlet Port

OS:Node,
  {ef818770-3175-42f7-934b-9aeae97f941f}, !- Handle
  Node 3,                                 !- Name
  {6d9df652-f16c-4df0-b5d0-a3bd6bc1e396}, !- Inlet Port
  {7c6f9eeb-c9d1-4c05-b5f0-619189ee934f}; !- Outlet Port

OS:Node,
  {337df535-4a3f-4f88-bd3e-068b1a7cd7bc}, !- Handle
  Node 4,                                 !- Name
  {eb73afa1-d766-45f9-bdf4-4e0f46fa81af}, !- Inlet Port
  {cbb5146e-c52f-4b74-a797-8a7e419f3c08}; !- Outlet Port

OS:Node,
  {91c90c80-ed90-45c9-a405-11f17fe28781}, !- Handle
  Node 5,                                 !- Name
  {7d581e40-5308-4792-ba79-cfed42395e0a}, !- Inlet Port
  {b3ba8094-aa98-486c-998f-df98158cc252}; !- Outlet Port

OS:Connection,
  {6d9df652-f16c-4df0-b5d0-a3bd6bc1e396}, !- Handle
  Connection 4,                           !- Name
  {c4b17677-9b6a-4ad2-9228-9c032a40dc2f}, !- Source Object
  9,                                      !- Outlet Port
  {ef818770-3175-42f7-934b-9aeae97f941f}, !- Target Object
  2;                                      !- Inlet Port

OS:Connection,
  {cbb5146e-c52f-4b74-a797-8a7e419f3c08}, !- Handle
  Connection 5,                           !- Name
  {337df535-4a3f-4f88-bd3e-068b1a7cd7bc}, !- Source Object
  3,                                      !- Outlet Port
  {c4b17677-9b6a-4ad2-9228-9c032a40dc2f}, !- Target Object
  8;                                      !- Inlet Port

OS:AirLoopHVAC:ZoneSplitter,
  {c139625c-01a4-46a4-b7c5-b1b0686f578c}, !- Handle
  Air Loop HVAC Zone Splitter 1,          !- Name
  {7c6f9eeb-c9d1-4c05-b5f0-619189ee934f}, !- Inlet Node Name
  {4fdd96f7-4807-4eb8-a06a-9765449fe7bc}; !- Outlet Node Name 1

OS:AirLoopHVAC:ZoneMixer,
  {e023690c-09c0-49d7-85d7-5580215b7313}, !- Handle
  Air Loop HVAC Zone Mixer 1,             !- Name
  {eb73afa1-d766-45f9-bdf4-4e0f46fa81af}, !- Outlet Node Name
  {b3ba8094-aa98-486c-998f-df98158cc252}; !- Inlet Node Name 1

OS:Connection,
  {7c6f9eeb-c9d1-4c05-b5f0-619189ee934f}, !- Handle
  Connection 6,                           !- Name
  {ef818770-3175-42f7-934b-9aeae97f941f}, !- Source Object
  3,                                      !- Outlet Port
  {c139625c-01a4-46a4-b7c5-b1b0686f578c}, !- Target Object
  2;                                      !- Inlet Port

OS:Connection,
  {b3ba8094-aa98-486c-998f-df98158cc252}, !- Handle
  Connection 8,                           !- Name
  {91c90c80-ed90-45c9-a405-11f17fe28781}, !- Source Object
  3,                                      !- Outlet Port
  {e023690c-09c0-49d7-85d7-5580215b7313}, !- Target Object
  3;                                      !- Inlet Port

OS:Connection,
  {eb73afa1-d766-45f9-bdf4-4e0f46fa81af}, !- Handle
  Connection 9,                           !- Name
  {e023690c-09c0-49d7-85d7-5580215b7313}, !- Source Object
  2,                                      !- Outlet Port
  {337df535-4a3f-4f88-bd3e-068b1a7cd7bc}, !- Target Object
  2;                                      !- Inlet Port

OS:Sizing:System,
  {04e45643-7a36-4f3f-a59e-92c5de7607ea}, !- Handle
  {c4b17677-9b6a-4ad2-9228-9c032a40dc2f}, !- AirLoop Name
  Sensible,                               !- Type of Load to Size On
  Autosize,                               !- Design Outdoor Air Flow Rate {m3/s}
  0.3,                                    !- Minimum System Air Flow Ratio
  7,                                      !- Preheat Design Temperature {C}
  0.008,                                  !- Preheat Design Humidity Ratio {kg-H2O/kg-Air}
  12.8,                                   !- Precool Design Temperature {C}
  0.008,                                  !- Precool Design Humidity Ratio {kg-H2O/kg-Air}
  12.8,                                   !- Central Cooling Design Supply Air Temperature {C}
  12.8,                                   !- Central Heating Design Supply Air Temperature {C}
  NonCoincident,                          !- Sizing Option
  Yes,                                    !- 100% Outdoor Air in Cooling
  Yes,                                    !- 100% Outdoor Air in Heating
  0.0085,                                 !- Central Cooling Design Supply Air Humidity Ratio {kg-H2O/kg-Air}
  0.008,                                  !- Central Heating Design Supply Air Humidity Ratio {kg-H2O/kg-Air}
  DesignDay,                              !- Cooling Design Air Flow Method
  0,                                      !- Cooling Design Air Flow Rate {m3/s}
  DesignDay,                              !- Heating Design Air Flow Method
  0,                                      !- Heating Design Air Flow Rate {m3/s}
  ZoneSum;                                !- System Outdoor Air Method

OS:Fan:VariableVolume,
  {f58d4c1c-6df7-4d59-8894-b404028410f3}, !- Handle
  Fan Variable Volume 1,                  !- Name
  {b49ddf6b-6854-4437-93e5-11b2e085c179}, !- Availability Schedule Name
  0.5,                                    !- Fan Efficiency
  500,                                    !- Pressure Rise {Pa}
  Autosize,                               !- Maximum Flow Rate {m3/s}
  FixedFlowRate,                          !- Fan Power Minimum Flow Rate Input Method
  0,                                      !- Fan Power Minimum Flow Fraction
  0,                                      !- Fan Power Minimum Air Flow Rate {m3/s}
  0.93,                                   !- Motor Efficiency
  1,                                      !- Motor In Airstream Fraction
  0.040759894,                            !- Fan Power Coefficient 1
  0.08804497,                             !- Fan Power Coefficient 2
  -0.07292612,                            !- Fan Power Coefficient 3
  0.943739823,                            !- Fan Power Coefficient 4
  0,                                      !- Fan Power Coefficient 5
  {08afacf7-c698-44c2-a988-0b68efe67ef9}, !- Air Inlet Node Name
  {11a20bcc-de67-4ac5-861a-4783eb2a1c72}, !- Air Outlet Node Name
  ;                                       !- End-Use Subcategory

OS:ScheduleTypeLimits,
  {0a39fa17-fb9f-4569-9c2d-3e6067b0f5c5}, !- Handle
  OnOff,                                  !- Name
  0,                                      !- Lower Limit Value {BasedOnField A4}
  1,                                      !- Upper Limit Value {BasedOnField A4}
  Discrete,                               !- Numeric Type
  Availability;                           !- Unit Type

OS:Coil:Heating:Water,
  {0abfb254-229a-4c6e-8b0d-9f51bc1c15db}, !- Handle
  Coil Heating Water 1,                   !- Name
  {b49ddf6b-6854-4437-93e5-11b2e085c179}, !- Availability Schedule Name
  ,                                       !- U-Factor Times Area Value {W/K}
  ,                                       !- Maximum Water Flow Rate {m3/s}
  {018bf3cb-6e34-483c-aa79-d9186ca92136}, !- Water Inlet Node Name
  {7056660d-74ff-4301-b66f-e6fdccc91163}, !- Water Outlet Node Name
  {292c2af8-b39a-45b8-b939-b70a09bb21fe}, !- Air Inlet Node Name
  {54ed7fd0-b106-4676-ad69-9e44c87c61dc}, !- Air Outlet Node Name
  ,                                       !- Performance Input Method
  ,                                       !- Rated Capacity {W}
  ,                                       !- Rated Inlet Water Temperature {C}
  ,                                       !- Rated Inlet Air Temperature {C}
  ,                                       !- Rated Outlet Water Temperature {C}
  ,                                       !- Rated Outlet Air Temperature {C}
  ;                                       !- Rated Ratio for Air and Water Convection

OS:Curve:Biquadratic,
  {b50225ba-cf6e-4be3-8c01-2caf90db9f94}, !- Handle
  Curve Biquadratic 1,                    !- Name
  0.42415,                                !- Coefficient1 Constant
  0.04426,                                !- Coefficient2 x
  -0.00042,                               !- Coefficient3 x**2
  0.00333,                                !- Coefficient4 y
  -8e-05,                                 !- Coefficient5 y**2
  -0.00021,                               !- Coefficient6 x*y
  17,                                     !- Minimum Value of x {BasedOnField A2}
  22,                                     !- Maximum Value of x {BasedOnField A2}
  13,                                     !- Minimum Value of y {BasedOnField A3}
  46;                                     !- Maximum Value of y {BasedOnField A3}

OS:Curve:Quadratic,
  {20a60605-851f-4036-9460-4577e740febc}, !- Handle
  Curve Quadratic 1,                      !- Name
  0.77136,                                !- Coefficient1 Constant
  0.34053,                                !- Coefficient2 x
  -0.11088,                               !- Coefficient3 x**2
  0.75918,                                !- Minimum Value of x {BasedOnField A2}
  1.13877;                                !- Maximum Value of x {BasedOnField A2}

OS:Curve:Biquadratic,
  {b06fe3ed-f79e-4428-bff0-d5db95510f43}, !- Handle
  Curve Biquadratic 2,                    !- Name
  1.23649,                                !- Coefficient1 Constant
  -0.02431,                               !- Coefficient2 x
  0.00057,                                !- Coefficient3 x**2
  -0.01434,                               !- Coefficient4 y
  0.00063,                                !- Coefficient5 y**2
  -0.00038,                               !- Coefficient6 x*y
  17,                                     !- Minimum Value of x {BasedOnField A2}
  22,                                     !- Maximum Value of x {BasedOnField A2}
  13,                                     !- Minimum Value of y {BasedOnField A3}
  46;                                     !- Maximum Value of y {BasedOnField A3}

OS:Curve:Quadratic,
  {404c5d55-5b31-4ab9-a443-8cbe53adcba0}, !- Handle
  Curve Quadratic 2,                      !- Name
  1.2055,                                 !- Coefficient1 Constant
  -0.32953,                               !- Coefficient2 x
  0.12308,                                !- Coefficient3 x**2
  0.75918,                                !- Minimum Value of x {BasedOnField A2}
  1.13877;                                !- Maximum Value of x {BasedOnField A2}

OS:Curve:Quadratic,
  {032ec7cf-1f2b-4c3a-8d89-38e0ac2d464e}, !- Handle
  Curve Quadratic 3,                      !- Name
  0.771,                                  !- Coefficient1 Constant
  0.229,                                  !- Coefficient2 x
  0,                                      !- Coefficient3 x**2
  0,                                      !- Minimum Value of x {BasedOnField A2}
  1;                                      !- Maximum Value of x {BasedOnField A2}

OS:Curve:Biquadratic,
  {c526976f-80c3-4994-b7fd-fd222929ce3b}, !- Handle
  Curve Biquadratic 3,                    !- Name
  0,                                      !- Coefficient1 Constant
  0,                                      !- Coefficient2 x
  0,                                      !- Coefficient3 x**2
  0,                                      !- Coefficient4 y
  0,                                      !- Coefficient5 y**2
  0,                                      !- Coefficient6 x*y
  0,                                      !- Minimum Value of x {BasedOnField A2}
  1,                                      !- Maximum Value of x {BasedOnField A2}
  0,                                      !- Minimum Value of y {BasedOnField A3}
  1;                                      !- Maximum Value of y {BasedOnField A3}

OS:Curve:Biquadratic,
  {edd31024-8d83-4a38-86c6-5538330a5c8f}, !- Handle
  Curve Biquadratic 4,                    !- Name
  0,                                      !- Coefficient1 Constant
  0,                                      !- Coefficient2 x
  0,                                      !- Coefficient3 x**2
  0,                                      !- Coefficient4 y
  0,                                      !- Coefficient5 y**2
  0,                                      !- Coefficient6 x*y
  0,                                      !- Minimum Value of x {BasedOnField A2}
  1,                                      !- Maximum Value of x {BasedOnField A2}
  0,                                      !- Minimum Value of y {BasedOnField A3}
  1;                                      !- Maximum Value of y {BasedOnField A3}

OS:Coil:Cooling:DX:TwoSpeed,
  {6e5b07d0-1aae-4464-9a38-b2c1d53fddd4}, !- Handle
  Coil Cooling DX Two Speed 1,            !- Name
  {b49ddf6b-6854-4437-93e5-11b2e085c179}, !- Availability Schedule Name
  Autosize,                               !- Rated High Speed Total Cooling Capacity {W}
  Autosize,                               !- Rated High Speed Sensible Heat Ratio
  5.5,                                    !- Rated High Speed COP {W/W}
  Autosize,                               !- Rated High Speed Air Flow Rate {m3/s}
  {74862492-f899-48f5-b117-742e776f1f7c}, !- Air Inlet Node Name
  {d38fa256-f3d5-4a32-a947-a0fc9eb08ae0}, !- Air Outlet Node Name
  {b50225ba-cf6e-4be3-8c01-2caf90db9f94}, !- Total Cooling Capacity Function of Temperature Curve Name
  {20a60605-851f-4036-9460-4577e740febc}, !- Total Cooling Capacity Function of Flow Fraction Curve Name
  {b06fe3ed-f79e-4428-bff0-d5db95510f43}, !- Energy Input Ratio Function of Temperature Curve Name
  {404c5d55-5b31-4ab9-a443-8cbe53adcba0}, !- Energy Input Ratio Function of Flow Fraction Curve Name
  {032ec7cf-1f2b-4c3a-8d89-38e0ac2d464e}, !- Part Load Fraction Correlation Curve Name
  Autosize,                               !- Rated Low Speed Total Cooling Capacity {W}
  0.69,                                   !- Rated Low Speed Sensible Heat Ratio
  6.6,                                    !- Rated Low Speed COP {W/W}
  ,                                       !- Rated Low Speed Air Flow Rate {m3/s}
  {c526976f-80c3-4994-b7fd-fd222929ce3b}, !- Low Speed Total Cooling Capacity Function of Temperature Curve Name
  {edd31024-8d83-4a38-86c6-5538330a5c8f}, !- Low Speed Energy Input Ratio Function of Temperature Curve Name
  ,                                       !- Condenser Air Inlet Node Name
  AirCooled,                              !- Condenser Type
  0,                                      !- High Speed Evaporative Condenser Effectiveness {dimensionless}
  Autosize,                               !- High Speed Evaporative Condenser Air Flow Rate {m3/s}
  Autosize,                               !- High Speed Evaporative Condenser Pump Rated Power Consumption {W}
  0,                                      !- Low Speed Evaporative Condenser Effectiveness {dimensionless}
  Autosize,                               !- Low Speed Evaporative Condenser Air Flow Rate {m3/s}
  Autosize,                               !- Low Speed Evaporative Condenser Pump Rated Power Consumption {W}
  ,                                       !- Supply Water Storage Tank Name
  ,                                       !- Condensate Collection Water Storage Tank Name
  10,                                     !- Basin Heater Capacity {W/K}
  2,                                      !- Basin Heater Setpoint Temperature {C}
  ;                                       !- Basin Heater Operating Schedule Name

OS:SetpointManager:MixedAir,
  {5d3ff0d4-c19b-4729-9375-ba6b62058f43}, !- Handle
  Setpoint Manager Mixed Air 1,           !- Name
  ,                                       !- Control Variable
  {d9503798-9b7c-46d8-9828-b2fc557a6e81}, !- Reference Setpoint Node Name
  {9ab14098-88e6-40d9-b509-ea19933dd00b}, !- Fan Inlet Node Name
  {d9503798-9b7c-46d8-9828-b2fc557a6e81}, !- Fan Outlet Node Name
  {9ab14098-88e6-40d9-b509-ea19933dd00b}; !- Setpoint Node or NodeList Name

OS:SetpointManager:MixedAir,
  {07186d5d-dc8a-441e-ac70-dfecf352a3bc}, !- Handle
  Setpoint Manager Mixed Air 2,           !- Name
  ,                                       !- Control Variable
  {d9503798-9b7c-46d8-9828-b2fc557a6e81}, !- Reference Setpoint Node Name
  {9ab14098-88e6-40d9-b509-ea19933dd00b}, !- Fan Inlet Node Name
  {d9503798-9b7c-46d8-9828-b2fc557a6e81}, !- Fan Outlet Node Name
  {7e05944b-2e47-47ed-bc8b-8532cb131376}; !- Setpoint Node or NodeList Name

OS:SetpointManager:MixedAir,
  {9f8bac9d-d297-48ca-bbe8-fbf0b9ec6dd4}, !- Handle
  Setpoint Manager Mixed Air 3,           !- Name
  ,                                       !- Control Variable
  {d9503798-9b7c-46d8-9828-b2fc557a6e81}, !- Reference Setpoint Node Name
  {9ab14098-88e6-40d9-b509-ea19933dd00b}, !- Fan Inlet Node Name
  {d9503798-9b7c-46d8-9828-b2fc557a6e81}, !- Fan Outlet Node Name
  {35ed9984-502d-40d5-bea0-2efbea33647f}; !- Setpoint Node or NodeList Name

OS:SetpointManager:Scheduled,
  {b653af12-be66-4f4e-83de-c1f4aaf4095e}, !- Handle
  Setpoint Manager Scheduled 1,           !- Name
  Temperature,                            !- Control Variable
  {6684942d-b5fc-46a9-b0d6-10e81588abb3}, !- Schedule Name
  {d9503798-9b7c-46d8-9828-b2fc557a6e81}; !- Setpoint Node or NodeList Name

OS:ScheduleTypeLimits,
  {49d62d08-f0fb-45aa-8023-6581dcf230b2}, !- Handle
  Temperature,                            !- Name
  ,                                       !- Lower Limit Value {BasedOnField A4}
  ,                                       !- Upper Limit Value {BasedOnField A4}
  Continuous,                             !- Numeric Type
  Temperature;                            !- Unit Type

OS:Controller:OutdoorAir,
  {e1304808-9f20-42fe-b03b-560d95767b88}, !- Handle
  Controller Outdoor Air 1,               !- Name
  ,                                       !- Relief Air Outlet Node Name
  ,                                       !- Return Air Node Name
  ,                                       !- Mixed Air Node Name
  ,                                       !- Actuator Node Name
  Autosize,                               !- Minimum Outdoor Air Flow Rate {m3/s}
  Autosize,                               !- Maximum Outdoor Air Flow Rate {m3/s}
  FixedDryBulb,                           !- Economizer Control Type
  ModulateFlow,                           !- Economizer Control Action Type
  30,                                     !- Economizer Maximum Limit Dry-Bulb Temperature {C}
  64000,                                  !- Economizer Maximum Limit Enthalpy {J/kg}
  ,                                       !- Economizer Maximum Limit Dewpoint Temperature {C}
  ,                                       !- Electronic Enthalpy Limit Curve Name
  -100,                                   !- Economizer Minimum Limit Dry-Bulb Temperature {C}
  NoLockout,                              !- Lockout Type
  FixedMinimum,                           !- Minimum Limit Type
  ,                                       !- Minimum Outdoor Air Schedule Name
  ,                                       !- Minimum Fraction of Outdoor Air Schedule Name
  ,                                       !- Maximum Fraction of Outdoor Air Schedule Name
  ,                                       !- Mechanical Ventilation Controller Name
  ,                                       !- Time of Day Economizer Control Schedule Name
  No,                                     !- High Humidity Control
  ,                                       !- Humidistat Control Zone Name
  ,                                       !- High Humidity Outdoor Air Flow Ratio
  ,                                       !- Control High Indoor Humidity Based on Outdoor Humidity Ratio
  BypassWhenOAFlowGreaterThanMinimum;     !- Heat Recovery Bypass Control Type

OS:AirLoopHVAC:OutdoorAirSystem,
  {4093a3ba-33f2-4725-b2bf-d372945e9486}, !- Handle
  Air Loop HVAC Outdoor Air System 1,     !- Name
  {e1304808-9f20-42fe-b03b-560d95767b88}, !- Controller Name
  ,                                       !- Outdoor Air Equipment List Name
  ,                                       !- Availability Manager List Name
  {335cd436-70d1-49c1-b9e5-0d6622e62d6a}, !- Mixed Air Node Name
  {aff6d954-971d-40d8-827a-f0d18f528d98}, !- Outdoor Air Stream Node Name
  {16d60441-95e0-47f6-ab15-a74bf008037b}, !- Relief Air Stream Node Name
  {2c88080b-a4cd-405d-8c4b-17fb9e4c69a8}; !- Return Air Stream Node Name

OS:Node,
  {0409fde7-4c7e-4f83-88a3-2c5200ce486d}, !- Handle
  Node 6,                                 !- Name
  ,                                       !- Inlet Port
  {aff6d954-971d-40d8-827a-f0d18f528d98}; !- Outlet Port

OS:Connection,
  {aff6d954-971d-40d8-827a-f0d18f528d98}, !- Handle
  Connection 10,                          !- Name
  {0409fde7-4c7e-4f83-88a3-2c5200ce486d}, !- Source Object
  3,                                      !- Outlet Port
  {4093a3ba-33f2-4725-b2bf-d372945e9486}, !- Target Object
  6;                                      !- Inlet Port

OS:Node,
  {b47392ae-ae75-4cfd-8446-55f86d726747}, !- Handle
  Node 7,                                 !- Name
  {16d60441-95e0-47f6-ab15-a74bf008037b}, !- Inlet Port
  ;                                       !- Outlet Port

OS:Connection,
  {16d60441-95e0-47f6-ab15-a74bf008037b}, !- Handle
  Connection 11,                          !- Name
  {4093a3ba-33f2-4725-b2bf-d372945e9486}, !- Source Object
  7,                                      !- Outlet Port