
OS:Version,
  {3b81acf9-9aed-4e90-8926-2099a4e50e3d}, !- Handle
  0.10.0;                                 !- Version Identifier

OS:BuildingStory,
  {c750dd1b-5d83-466d-932d-7043b85915a0}, !- Handle
  Story 1,                                !- Name
  0,                                      !- Nominal Z Coordinate {m}
  4,                                      !- Nominal Floor to Floor Height {m}
  ,                                       !- Default Construction Set Name
  ,                                       !- Default Schedule Set Name
  ;                                       !- Group Rendering Name

OS:Space,
  {89936881-a3a1-45ab-807f-b04dec086d6c}, !- Handle
  Story 1 West Perimeter Space,           !- Name
  ,                                       !- Space Type Name
  ,                                       !- Default Construction Set Name
  ,                                       !- Default Schedule Set Name
  -0,                                     !- Direction of Relative North {deg}
  0,                                      !- X Origin {m}
  0,                                      !- Y Origin {m}
  0,                                      !- Z Origin {m}
  {c750dd1b-5d83-466d-932d-7043b85915a0}, !- Building Story Name
  {eeeee995-47ef-4ce0-ac29-117d502674ae}; !- Thermal Zone Name

OS:Surface,
  {5aac10a6-274a-48e4-aaea-1a767a2cf6c6}, !- Handle
  Surface 1,                              !- Name
  Floor,                                  !- Surface Type
  ,                                       !- Construction Name
  {89936881-a3a1-45ab-807f-b04dec086d6c}, !- Space Name
  Ground,                                 !- Outside Boundary Condition
  ,                                       !- Outside Boundary Condition Object
  NoSun,                                  !- Sun Exposure
  NoWind,                                 !- Wind Exposure
  ,                                       !- View Factor to Ground
  ,                                       !- Number of Vertices
  0, 0, 0,                                !- X,Y,Z Vertex 1 {m}
  0, 14.142135623731, 0,                  !- X,Y,Z Vertex 2 {m}
  3, 11.142135623731, 0,                  !- X,Y,Z Vertex 3 {m}
  3, 3, 0;                                !- X,Y,Z Vertex 4 {m}

OS:Surface,
  {a2029ab9-920b-4fd8-90cf-7feb577269e6}, !- Handle
  Surface 2,                              !- Name
  Wall,                                   !- Surface Type
  ,                                       !- Construction Name
  {89936881-a3a1-45ab-807f-b04dec086d6c}, !- Space Name
  Outdoors,                               !- Outside Boundary Condition
  ,                                       !- Outside Boundary Condition Object
  SunExposed,                             !- Sun Exposure
  WindExposed,                            !- Wind Exposure
  ,                                       !- View Factor to Ground
  ,                                       !- Number of Vertices
  0, 14.142135623731, 4,                  !- X,Y,Z Vertex 1 {m}
  0, 14.142135623731, 0,                  !- X,Y,Z Vertex 2 {m}
  0, 0, 0,                                !- X,Y,Z Vertex 3 {m}
  0, 0, 4;                                !- X,Y,Z Vertex 4 {m}

OS:Surface,
  {c1b76640-7a3b-4b98-a8c8-5f6c9df9121c}, !- Handle
  Surface 3,                              !- Name
  Wall,                                   !- Surface Type
  ,                                       !- Construction Name
  {89936881-a3a1-45ab-807f-b04dec086d6c}, !- Space Name
  Surface,                                !- Outside Boundary Condition
  {ece71d63-91c5-4f3e-85a6-9409294d3b06}, !- Outside Boundary Condition Object
  NoSun,                                  !- Sun Exposure
  NoWind,                                 !- Wind Exposure
  ,                                       !- View Factor to Ground
  ,                                       !- Number of Vertices
  3, 11.142135623731, 4,                  !- X,Y,Z Vertex 1 {m}
  3, 11.142135623731, 0,                  !- X,Y,Z Vertex 2 {m}
  0, 14.142135623731, 0,                  !- X,Y,Z Vertex 3 {m}
  0, 14.142135623731, 4;                  !- X,Y,Z Vertex 4 {m}

OS:Surface,
  {9f6b4647-db5a-4c13-8a32-1b412eac97cf}, !- Handle
  Surface 4,                              !- Name
  Wall,                                   !- Surface Type
  ,                                       !- Construction Name
  {89936881-a3a1-45ab-807f-b04dec086d6c}, !- Space Name
  Surface,                                !- Outside Boundary Condition
  {88a948c7-441f-4a59-9e18-03381ff841c4}, !- Outside Boundary Condition Object
  NoSun,                                  !- Sun Exposure
  NoWind,                                 !- Wind Exposure
  ,                                       !- View Factor to Ground
  ,                                       !- Number of Vertices
  3, 3, 4,                                !- X,Y,Z Vertex 1 {m}
  3, 3, 0,                                !- X,Y,Z Vertex 2 {m}
  3, 11.142135623731, 0,                  !- X,Y,Z Vertex 3 {m}
  3, 11.142135623731, 4;                  !- X,Y,Z Vertex 4 {m}

OS:Surface,
  {93d00699-60f4-44d6-8608-a63a87835b86}, !- Handle
  Surface 5,                              !- Name
  Wall,                                   !- Surface Type
  ,                                       !- Construction Name
  {89936881-a3a1-45ab-807f-b04dec086d6c}, !- Space Name
  Surface,                                !- Outside Boundary Condition
  {61e11675-2514-4552-8b82-3427c2991d2c}, !- Outside Boundary Condition Object
  NoSun,                                  !- Sun Exposure
  NoWind,                                 !- Wind Exposure
  ,                                       !- View Factor to Ground
  ,                                       !- Number of Vertices
  0, 0, 4,                                !- X,Y,Z Vertex 1 {m}
  0, 0, 0,                                !- X,Y,Z Vertex 2 {m}
  3, 3, 0,                                !- X,Y,Z Vertex 3 {m}
  3, 3, 4;                                !- X,Y,Z Vertex 4 {m}

OS:Surface,
  {ed8c4704-ceba-40a6-900d-f3cee7a16033}, !- Handle
  Surface 6,                              !- Name
  RoofCeiling,                            !- Surface Type
  ,                                       !- Construction Name
  {89936881-a3a1-45ab-807f-b04dec086d6c}, !- Space Name
  Outdoors,                               !- Outside Boundary Condition
  ,                                       !- Outside Boundary Condition Object
  SunExposed,                             !- Sun Exposure
  WindExposed,                            !- Wind Exposure
  ,                                       !- View Factor to Ground
  ,                                       !- Number of Vertices
  3, 3, 4,                                !- X,Y,Z Vertex 1 {m}
  3, 11.142135623731, 4,                  !- X,Y,Z Vertex 2 {m}
  0, 14.142135623731, 4,                  !- X,Y,Z Vertex 3 {m}
  0, 0, 4;                                !- X,Y,Z Vertex 4 {m}

OS:Space,
  {0e3f643f-5fe4-4c96-85e7-debeab19ac3c}, !- Handle
  Story 1 North Perimeter Space,          !- Name
  ,                                       !- Space Type Name
  ,                                       !- Default Construction Set Name
  ,                                       !- Default Schedule Set Name
  -0,                                     !- Direction of Relative North {deg}
  3,                                      !- X Origin {m}
  11.142135623731,                        !- Y Origin {m}
  0,                                      !- Z Origin {m}
  {c750dd1b-5d83-466d-932d-7043b85915a0}, !- Building Story Name
  {25776bda-dcf3-47c3-a8b5-91263cca8862}; !- Thermal Zone Name

OS:Surface,
  {4c7d663d-1d97-4e23-b703-a132d1617953}, !- Handle
  Surface 7,                              !- Name
  Floor,                                  !- Surface Type
  ,                                       !- Construction Name
  {0e3f643f-5fe4-4c96-85e7-debeab19ac3c}, !- Space Name
  Ground,                                 !- Outside Boundary Condition
  ,                                       !- Outside Boundary Condition Object
  NoSun,                                  !- Sun Exposure
  NoWind,                                 !- Wind Exposure
  ,                                       !- View Factor to Ground
  ,                                       !- Number of Vertices
  -3, 3.00000000000005, 0,                !- X,Y,Z Vertex 1 {m}
  11.142135623731, 3.00000000000005, 0,   !- X,Y,Z Vertex 2 {m}
  8.142135623731, 4.9737991503207e-14, 0, !- X,Y,Z Vertex 3 {m}
  0, 4.9737991503207e-14, 0;              !- X,Y,Z Vertex 4 {m}

OS:Surface,
  {ee549bb2-d96e-4326-bb3d-e88f7b1de720}, !- Handle
  Surface 8,                              !- Name
  Wall,                                   !- Surface Type
  ,                                       !- Construction Name
  {0e3f643f-5fe4-4c96-85e7-debeab19ac3c}, !- Space Name
  Outdoors,                               !- Outside Boundary Condition
  ,                                       !- Outside Boundary Condition Object
  SunExposed,                             !- Sun Exposure
  WindExposed,                            !- Wind Exposure
  ,                                       !- View Factor to Ground
  ,                                       !- Number of Vertices
  11.142135623731, 3.00000000000005, 4,   !- X,Y,Z Vertex 1 {m}
  11.142135623731, 3.00000000000005, 0,   !- X,Y,Z Vertex 2 {m}
  -3, 3.00000000000005, 0,                !- X,Y,Z Vertex 3 {m}
  -3, 3.00000000000005, 4;                !- X,Y,Z Vertex 4 {m}

OS:Surface,
  {09bf3c16-1f06-4355-ba61-5789a9a57d2d}, !- Handle
  Surface 9,                              !- Name
  Wall,                                   !- Surface Type
  ,                                       !- Construction Name
  {0e3f643f-5fe4-4c96-85e7-debeab19ac3c}, !- Space Name
  Surface,                                !- Outside Boundary Condition
  {9f6de854-28f6-4c1b-aaed-b9c468139ba0}, !- Outside Boundary Condition Object
  NoSun,                                  !- Sun Exposure
  NoWind,                                 !- Wind Exposure
  ,                                       !- View Factor to Ground
  ,                                       !- Number of Vertices
  8.142135623731, 4.9737991503207e-14, 4, !- X,Y,Z Vertex 1 {m}
  8.142135623731, 4.9737991503207e-14, 0, !- X,Y,Z Vertex 2 {m}
  11.142135623731, 3.00000000000005, 0,   !- X,Y,Z Vertex 3 {m}
  11.142135623731, 3.00000000000005, 4;   !- X,Y,Z Vertex 4 {m}

OS:Surface,
  {21ac2440-f44c-4c08-92d2-ee6521d3d8ef}, !- Handle
  Surface 10,                             !- Name
  Wall,                                   !- Surface Type
  ,                                       !- Construction Name
  {0e3f643f-5fe4-4c96-85e7-debeab19ac3c}, !- Space Name
  Surface,                                !- Outside Boundary Condition
  {a546acd4-55b4-4825-bbd3-fa49454aa232}, !- Outside Boundary Condition Object
  NoSun,                                  !- Sun Exposure
  NoWind,                                 !- Wind Exposure
  ,                                       !- View Factor to Ground
  ,                                       !- Number of Vertices
  0, 4.9737991503207e-14, 4,              !- X,Y,Z Vertex 1 {m}
  0, 4.9737991503207e-14, 0,              !- X,Y,Z Vertex 2 {m}
  8.142135623731, 4.9737991503207e-14, 0, !- X,Y,Z Vertex 3 {m}
  8.142135623731, 4.9737991503207e-14, 4; !- X,Y,Z Vertex 4 {m}

OS:Surface,
  {ece71d63-91c5-4f3e-85a6-9409294d3b06}, !- Handle
  Surface 11,                             !- Name
  Wall,                                   !- Surface Type
  ,                                       !- Construction Name
  {0e3f643f-5fe4-4c96-85e7-debeab19ac3c}, !- Space Name
  Surface,                                !- Outside Boundary Condition
  {c1b76640-7a3b-4b98-a8c8-5f6c9df9121c}, !- Outside Boundary Condition Object
  NoSun,                                  !- Sun Exposure
  NoWind,                                 !- Wind Exposure
  ,                                       !- View Factor to Ground
  ,                                       !- Number of Vertices
  -3, 3.00000000000005, 4,                !- X,Y,Z Vertex 1 {m}
  -3, 3.00000000000005, 0,                !- X,Y,Z Vertex 2 {m}
  0, 4.9737991503207e-14, 0,              !- X,Y,Z Vertex 3 {m}
  0, 4.9737991503207e-14, 4;              !- X,Y,Z Vertex 4 {m}

OS:Surface,
  {fdf0ff48-c7ee-423c-9b5b-bacda742f734}, !- Handle
  Surface 12,                             !- Name
  RoofCeiling,                            !- Surface Type
  ,                                       !- Construction Name
  {0e3f643f-5fe4-4c96-85e7-debeab19ac3c}, !- Space Name
  Outdoors,                               !- Outside Boundary Condition
  ,                                       !- Outside Boundary Condition Object
  SunExposed,                             !- Sun Exposure
  WindExposed,                            !- Wind Exposure
  ,                                       !- View Factor to Ground
  ,                                       !- Number of Vertices
  0, 4.9737991503207e-14, 4,              !- X,Y,Z Vertex 1 {m}
  8.142135623731, 4.9737991503207e-14, 4, !- X,Y,Z Vertex 2 {m}
  11.142135623731, 3.00000000000005, 4,   !- X,Y,Z Vertex 3 {m}
  -3, 3.00000000000005, 4;                !- X,Y,Z Vertex 4 {m}

OS:Space,
  {5a1bf186-6c38-44f1-9322-fc95133140d9}, !- Handle
  Story 1 East Perimeter Space,           !- Name
  ,                                       !- Space Type Name
  ,                                       !- Default Construction Set Name
  ,                                       !- Default Schedule Set Name
  -0,                                     !- Direction of Relative North {deg}
  11.142135623731,                        !- X Origin {m}
  3,                                      !- Y Origin {m}
  0,                                      !- Z Origin {m}
  {c750dd1b-5d83-466d-932d-7043b85915a0}, !- Building Story Name
  {794c11e3-6ac9-46ec-ab4e-d1e78756f65f}; !- Thermal Zone Name

OS:Surface,
  {81c5d507-4b9e-41f2-8561-2a22647f70f0}, !- Handle
  Surface 13,                             !- Name
  Floor,                                  !- Surface Type
  ,                                       !- Construction Name
  {5a1bf186-6c38-44f1-9322-fc95133140d9}, !- Space Name
  Ground,                                 !- Outside Boundary Condition
  ,                                       !- Outside Boundary Condition Object
  NoSun,                                  !- Sun Exposure
  NoWind,                                 !- Wind Exposure
  ,                                       !- View Factor to Ground
  ,                                       !- Number of Vertices
  3.00000000000005, 11.142135623731, 0,   !- X,Y,Z Vertex 1 {m}
  3.00000000000005, -3, 0,                !- X,Y,Z Vertex 2 {m}
  4.9737991503207e-14, 0, 0,              !- X,Y,Z Vertex 3 {m}
  4.9737991503207e-14, 8.142135623731, 0; !- X,Y,Z Vertex 4 {m}

OS:Surface,
  {3328db27-9953-485b-983a-4f310c4f620e}, !- Handle
  Surface 14,                             !- Name
  Wall,                                   !- Surface Type
  ,                                       !- Construction Name
  {5a1bf186-6c38-44f1-9322-fc95133140d9}, !- Space Name
  Outdoors,                               !- Outside Boundary Condition
  ,                                       !- Outside Boundary Condition Object
  SunExposed,                             !- Sun Exposure
  WindExposed,                            !- Wind Exposure
  ,                                       !- View Factor to Ground
  ,                                       !- Number of Vertices
  3.00000000000005, -3, 4,                !- X,Y,Z Vertex 1 {m}
  3.00000000000005, -3, 0,                !- X,Y,Z Vertex 2 {m}
  3.00000000000005, 11.142135623731, 0,   !- X,Y,Z Vertex 3 {m}
  3.00000000000005, 11.142135623731, 4;   !- X,Y,Z Vertex 4 {m}

OS:Surface,
  {65cb9586-ea9d-4a64-9f30-830659e0c512}, !- Handle
  Surface 15,                             !- Name
  Wall,                                   !- Surface Type
  ,                                       !- Construction Name
  {5a1bf186-6c38-44f1-9322-fc95133140d9}, !- Space Name
  Surface,                                !- Outside Boundary Condition
  {faadf862-e371-4b02-96fc-012c941d1d48}, !- Outside Boundary Condition Object
  NoSun,                                  !- Sun Exposure
  NoWind,                                 !- Wind Exposure
  ,                                       !- View Factor to Ground
  ,                                       !- Number of Vertices
  4.9737991503207e-14, 0, 4,              !- X,Y,Z Vertex 1 {m}
  4.9737991503207e-14, 0, 0,              !- X,Y,Z Vertex 2 {m}
  3.00000000000005, -3, 0,                !- X,Y,Z Vertex 3 {m}
  3.00000000000005, -3, 4;                !- X,Y,Z Vertex 4 {m}

OS:Surface,
  {4fc83abe-2abe-4908-919f-0726fea5633b}, !- Handle
  Surface 16,                             !- Name
  Wall,                                   !- Surface Type
  ,                                       !- Construction Name
  {5a1bf186-6c38-44f1-9322-fc95133140d9}, !- Space Name
  Surface,                                !- Outside Boundary Condition
  {9cc9762d-112f-45a2-999d-10e2786ffd4e}, !- Outside Boundary Condition Object
  NoSun,                                  !- Sun Exposure
  NoWind,                                 !- Wind Exposure
  ,                                       !- View Factor to Ground
  ,                                       !- Number of Vertices
  4.9737991503207e-14, 8.142135623731, 4, !- X,Y,Z Vertex 1 {m}
  4.9737991503207e-14, 8.142135623731, 0, !- X,Y,Z Vertex 2 {m}
  4.9737991503207e-14, 0, 0,              !- X,Y,Z Vertex 3 {m}
  4.9737991503207e-14, 0, 4;              !- X,Y,Z Vertex 4 {m}

OS:Surface,
  {9f6de854-28f6-4c1b-aaed-b9c468139ba0}, !- Handle
  Surface 17,                             !- Name
  Wall,                                   !- Surface Type
  ,                                       !- Construction Name
  {5a1bf186-6c38-44f1-9322-fc95133140d9}, !- Space Name
  Surface,                                !- Outside Boundary Condition
  {09bf3c16-1f06-4355-ba61-5789a9a57d2d}, !- Outside Boundary Condition Object
  NoSun,                                  !- Sun Exposure
  NoWind,                                 !- Wind Exposure
  ,                                       !- View Factor to Ground
  ,                                       !- Number of Vertices
  3.00000000000005, 11.142135623731, 4,   !- X,Y,Z Vertex 1 {m}
  3.00000000000005, 11.142135623731, 0,   !- X,Y,Z Vertex 2 {m}
  4.9737991503207e-14, 8.142135623731, 0, !- X,Y,Z Vertex 3 {m}
  4.9737991503207e-14, 8.142135623731, 4; !- X,Y,Z Vertex 4 {m}

OS:Surface,
  {a650b4d8-ace6-4c2a-a1a9-8ee37846465d}, !- Handle
  Surface 18,                             !- Name
  RoofCeiling,                            !- Surface Type
  ,                                       !- Construction Name
  {5a1bf186-6c38-44f1-9322-fc95133140d9}, !- Space Name
  Outdoors,                               !- Outside Boundary Condition
  ,                                       !- Outside Boundary Condition Object
  SunExposed,                             !- Sun Exposure
  WindExposed,                            !- Wind Exposure
  ,                                       !- View Factor to Ground
  ,                                       !- Number of Vertices
  4.9737991503207e-14, 8.142135623731, 4, !- X,Y,Z Vertex 1 {m}
  4.9737991503207e-14, 0, 4,              !- X,Y,Z Vertex 2 {m}
  3.00000000000005, -3, 4,                !- X,Y,Z Vertex 3 {m}
  3.00000000000005, 11.142135623731, 4;   !- X,Y,Z Vertex 4 {m}

OS:Space,
  {aea0d720-3597-426f-9330-ffc8f6342d60}, !- Handle
  Story 1 South Perimeter Space,          !- Name
  ,                                       !- Space Type Name
  ,                                       !- Default Construction Set Name
  ,                                       !- Default Schedule Set Name
  -0,                                     !- Direction of Relative North {deg}
  0,                                      !- X Origin {m}
  0,                                      !- Y Origin {m}
  0,                                      !- Z Origin {m}
  {c750dd1b-5d83-466d-932d-7043b85915a0}, !- Building Story Name
  {854f4609-f8fb-46ea-b4f6-9b41bc4c96c3}; !- Thermal Zone Name

OS:Surface,
  {129bf09e-b600-4e98-bfed-6be47c2e6d06}, !- Handle
  Surface 19,                             !- Name
  Floor,                                  !- Surface Type
  ,                                       !- Construction Name
  {aea0d720-3597-426f-9330-ffc8f6342d60}, !- Space Name
  Ground,                                 !- Outside Boundary Condition
  ,                                       !- Outside Boundary Condition Object
  NoSun,                                  !- Sun Exposure
  NoWind,                                 !- Wind Exposure
  ,                                       !- View Factor to Ground
  ,                                       !- Number of Vertices
  14.142135623731, 0, 0,                  !- X,Y,Z Vertex 1 {m}
  0, 0, 0,                                !- X,Y,Z Vertex 2 {m}
  3, 3, 0,                                !- X,Y,Z Vertex 3 {m}
  11.142135623731, 3, 0;                  !- X,Y,Z Vertex 4 {m}

OS:Surface,
  {c7cae5af-f59f-4bcb-9a93-59c7aabbd851}, !- Handle
  Surface 20,                             !- Name
  Wall,                                   !- Surface Type
  ,                                       !- Construction Name
  {aea0d720-3597-426f-9330-ffc8f6342d60}, !- Space Name
  Outdoors,                               !- Outside Boundary Condition
  ,                                       !- Outside Boundary Condition Object
  SunExposed,                             !- Sun Exposure
  WindExposed,                            !- Wind Exposure
  ,                                       !- View Factor to Ground
  ,                                       !- Number of Vertices
  0, 0, 4,                                !- X,Y,Z Vertex 1 {m}
  0, 0, 0,                                !- X,Y,Z Vertex 2 {m}
  14.142135623731, 0, 0,                  !- X,Y,Z Vertex 3 {m}
  14.142135623731, 0, 4;                  !- X,Y,Z Vertex 4 {m}

OS:Surface,
  {61e11675-2514-4552-8b82-3427c2991d2c}, !- Handle
  Surface 21,                             !- Name
  Wall,                                   !- Surface Type
  ,                                       !- Construction Name
  {aea0d720-3597-426f-9330-ffc8f6342d60}, !- Space Name
  Surface,                                !- Outside Boundary Condition
  {93d00699-60f4-44d6-8608-a63a87835b86}, !- Outside Boundary Condition Object
  NoSun,                                  !- Sun Exposure
  NoWind,                                 !- Wind Exposure
  ,                                       !- View Factor to Ground
  ,                                       !- Number of Vertices
  3, 3, 4,                                !- X,Y,Z Vertex 1 {m}
  3, 3, 0,                                !- X,Y,Z Vertex 2 {m}
  0, 0, 0,                                !- X,Y,Z Vertex 3 {m}
  0, 0, 4;                                !- X,Y,Z Vertex 4 {m}

OS:Surface,
  {02c1affa-2594-4445-859b-93067c3c501e}, !- Handle
  Surface 22,                             !- Name
  Wall,                                   !- Surface Type
  ,                                       !- Construction Name
  {aea0d720-3597-426f-9330-ffc8f6342d60}, !- Space Name
  Surface,                                !- Outside Boundary Condition
  {3444cc24-c829-4d11-a952-ae9166ef8aa4}, !- Outside Boundary Condition Object
  NoSun,                                  !- Sun Exposure
  NoWind,                                 !- Wind Exposure
  ,                                       !- View Factor to Ground
  ,                                       !- Number of Vertices
  11.142135623731, 3, 4,                  !- X,Y,Z Vertex 1 {m}
  11.142135623731, 3, 0,                  !- X,Y,Z Vertex 2 {m}
  3, 3, 0,                                !- X,Y,Z Vertex 3 {m}
  3, 3, 4;                                !- X,Y,Z Vertex 4 {m}

OS:Surface,
  {faadf862-e371-4b02-96fc-012c941d1d48}, !- Handle
  Surface 23,                             !- Name
  Wall,                                   !- Surface Type
  ,                                       !- Construction Name
  {aea0d720-3597-426f-9330-ffc8f6342d60}, !- Space Name
  Surface,                                !- Outside Boundary Condition
  {65cb9586-ea9d-4a64-9f30-830659e0c512}, !- Outside Boundary Condition Object
  NoSun,                                  !- Sun Exposure
  NoWind,                                 !- Wind Exposure
  ,                                       !- View Factor to Ground
  ,                                       !- Number of Vertices
  14.142135623731, 0, 4,                  !- X,Y,Z Vertex 1 {m}
  14.142135623731, 0, 0,                  !- X,Y,Z Vertex 2 {m}
  11.142135623731, 3, 0,                  !- X,Y,Z Vertex 3 {m}
  11.142135623731, 3, 4;                  !- X,Y,Z Vertex 4 {m}

OS:Surface,
  {6f492f62-7a15-4801-a8ed-82b0d42a3957}, !- Handle
  Surface 24,                             !- Name
  RoofCeiling,                            !- Surface Type
  ,                                       !- Construction Name
  {aea0d720-3597-426f-9330-ffc8f6342d60}, !- Space Name
  Outdoors,                               !- Outside Boundary Condition
  ,                                       !- Outside Boundary Condition Object
  SunExposed,                             !- Sun Exposure
  WindExposed,                            !- Wind Exposure
  ,                                       !- View Factor to Ground
  ,                                       !- Number of Vertices
  11.142135623731, 3, 4,                  !- X,Y,Z Vertex 1 {m}
  3, 3, 4,                                !- X,Y,Z Vertex 2 {m}
  0, 0, 4,                                !- X,Y,Z Vertex 3 {m}
  14.142135623731, 0, 4;                  !- X,Y,Z Vertex 4 {m}

OS:Space,
  {32b60435-3ad8-4eff-9e2c-32ed01dd57fa}, !- Handle
  Story 1 Core Space,                     !- Name
  ,                                       !- Space Type Name
  ,                                       !- Default Construction Set Name
  ,                                       !- Default Schedule Set Name
  -0,                                     !- Direction of Relative North {deg}
  3,                                      !- X Origin {m}
  3,                                      !- Y Origin {m}
  0,                                      !- Z Origin {m}
  {c750dd1b-5d83-466d-932d-7043b85915a0}, !- Building Story Name
  {2e303400-8e5b-451a-8d66-5daf097c294c}; !- Thermal Zone Name

OS:Surface,
  {3e28d313-ca9f-4939-8ba7-859b225bb8ab}, !- Handle
  Surface 25,                             !- Name
  Floor,                                  !- Surface Type
  ,                                       !- Construction Name
  {32b60435-3ad8-4eff-9e2c-32ed01dd57fa}, !- Space Name
  Ground,                                 !- Outside Boundary Condition
  ,                                       !- Outside Boundary Condition Object
  NoSun,                                  !- Sun Exposure
  NoWind,                                 !- Wind Exposure
  ,                                       !- View Factor to Ground
  ,                                       !- Number of Vertices
  0, 0, 0,                                !- X,Y,Z Vertex 1 {m}
  0, 8.142135623731, 0,                   !- X,Y,Z Vertex 2 {m}
  8.142135623731, 8.142135623731, 0,      !- X,Y,Z Vertex 3 {m}
  8.142135623731, 0, 0;                   !- X,Y,Z Vertex 4 {m}

OS:Surface,
  {88a948c7-441f-4a59-9e18-03381ff841c4}, !- Handle
  Surface 26,                             !- Name
  Wall,                                   !- Surface Type
  ,                                       !- Construction Name
  {32b60435-3ad8-4eff-9e2c-32ed01dd57fa}, !- Space Name
  Surface,                                !- Outside Boundary Condition
  {9f6b4647-db5a-4c13-8a32-1b412eac97cf}, !- Outside Boundary Condition Object
  NoSun,                                  !- Sun Exposure
  NoWind,                                 !- Wind Exposure
  ,                                       !- View Factor to Ground
  ,                                       !- Number of Vertices
  0, 8.142135623731, 4,                   !- X,Y,Z Vertex 1 {m}
  0, 8.142135623731, 0,                   !- X,Y,Z Vertex 2 {m}
  0, 0, 0,                                !- X,Y,Z Vertex 3 {m}
  0, 0, 4;                                !- X,Y,Z Vertex 4 {m}

OS:Surface,
  {a546acd4-55b4-4825-bbd3-fa49454aa232}, !- Handle
  Surface 27,                             !- Name
  Wall,                                   !- Surface Type
  ,                                       !- Construction Name
  {32b60435-3ad8-4eff-9e2c-32ed01dd57fa}, !- Space Name
  Surface,                                !- Outside Boundary Condition
  {21ac2440-f44c-4c08-92d2-ee6521d3d8ef}, !- Outside Boundary Condition Object
  NoSun,                                  !- Sun Exposure
  NoWind,                                 !- Wind Exposure
  ,                                       !- View Factor to Ground
  ,                                       !- Number of Vertices
  8.142135623731, 8.142135623731, 4,      !- X,Y,Z Vertex 1 {m}
  8.142135623731, 8.142135623731, 0,      !- X,Y,Z Vertex 2 {m}
  0, 8.142135623731, 0,                   !- X,Y,Z Vertex 3 {m}
  0, 8.142135623731, 4;                   !- X,Y,Z Vertex 4 {m}

OS:Surface,
  {9cc9762d-112f-45a2-999d-10e2786ffd4e}, !- Handle
  Surface 28,                             !- Name
  Wall,                                   !- Surface Type
  ,                                       !- Construction Name
  {32b60435-3ad8-4eff-9e2c-32ed01dd57fa}, !- Space Name