
OS:Version,
  {30752dae-c160-4ceb-9c4f-5187a8c35ad2}, !- Handle
  0.10.0;                                 !- Version Identifier

OS:BuildingStory,
  {f5a26494-e3f7-4dc7-b556-b9cd5ded853e}, !- Handle
  Story 1,                                !- Name
  0,                                      !- Nominal Z Coordinate {m}
  4,                                      !- Nominal Floor to Floor Height {m}
  ,                                       !- Default Construction Set Name
  ,                                       !- Default Schedule Set Name
  ;                                       !- Group Rendering Name

OS:Space,
  {b0a2ffdf-d98f-454e-9391-db52830c4f44}, !- Handle
  Story 1 West Perimeter Space,           !- Name
  ,                                       !- Space Type Name
  ,                                       !- Default Construction Set Name
  ,                                       !- Default Schedule Set Name
  -0,                                     !- Direction of Relative North {deg}
  0,                                      !- X Origin {m}
  0,                                      !- Y Origin {m}
  0,                                      !- Z Origin {m}
  {f5a26494-e3f7-4dc7-b556-b9cd5ded853e}, !- Building Story Name
  {e89e0042-294c-4b45-a3d2-1c8e77233059}; !- Thermal Zone Name

OS:Surface,
  {c19ff30b-9c01-4746-9bcf-2b6afbd72b51}, !- Handle
  Surface 1,                              !- Name
  Floor,                                  !- Surface Type
  ,                                       !- Construction Name
  {b0a2ffdf-d98f-454e-9391-db52830c4f44}, !- Space Name
  Ground,                                 !- Outside Boundary Condition
  ,                                       !- Outside Boundary Condition Object
  NoSun,                                  !- Sun Exposure
  NoWind,                                 !- Wind Exposure
  ,                                       !- View Factor to Ground
  ,                                       !- Number of Vertices
  0, 0, 0,                                !- X,Y,Z Vertex 1 {m}
  0, 22.3383079036887, 0,                 !- X,Y,Z Vertex 2 {m}
  3, 19.3383079036887, 0,                 !- X,Y,Z Vertex 3 {m}
  3, 3, 0;                                !- X,Y,Z Vertex 4 {m}

OS:Surface,
  {2729c70b-387c-4422-8a78-8eea80d2d6ba}, !- Handle
  Surface 2,                              !- Name
  Wall,                                   !- Surface Type
  ,                                       !- Construction Name
  {b0a2ffdf-d98f-454e-9391-db52830c4f44}, !- Space Name
  Outdoors,                               !- Outside Boundary Condition
  ,                                       !- Outside Boundary Condition Object
  SunExposed,                             !- Sun Exposure
  WindExposed,                            !- Wind Exposure
  ,                                       !- View Factor to Ground
  ,                                       !- Number of Vertices
  0, 22.3383079036887, 4,                 !- X,Y,Z Vertex 1 {m}
  0, 22.3383079036887, 0,                 !- X,Y,Z Vertex 2 {m}
  0, 0, 0,                                !- X,Y,Z Vertex 3 {m}
  0, 0, 4;                                !- X,Y,Z Vertex 4 {m}

OS:Surface,
  {978f8064-5f87-4456-854c-492bf04985a6}, !- Handle
  Surface 3,                              !- Name
  Wall,                                   !- Surface Type
  ,                                       !- Construction Name
  {b0a2ffdf-d98f-454e-9391-db52830c4f44}, !- Space Name
  Surface,                                !- Outside Boundary Condition
  {599475cf-9898-47e7-889e-eeac81940394}, !- Outside Boundary Condition Object
  NoSun,                                  !- Sun Exposure
  NoWind,                                 !- Wind Exposure
  ,                                       !- View Factor to Ground
  ,                                       !- Number of Vertices
  3, 19.3383079036887, 4,                 !- X,Y,Z Vertex 1 {m}
  3, 19.3383079036887, 0,                 !- X,Y,Z Vertex 2 {m}
  0, 22.3383079036887, 0,                 !- X,Y,Z Vertex 3 {m}
  0, 22.3383079036887, 4;                 !- X,Y,Z Vertex 4 {m}

OS:Surface,
  {9daf8971-fe38-4726-91bc-fa591539b478}, !- Handle
  Surface 4,                              !- Name
  Wall,                                   !- Surface Type
  ,                                       !- Construction Name
  {b0a2ffdf-d98f-454e-9391-db52830c4f44}, !- Space Name
  Surface,                                !- Outside Boundary Condition
  {89466ae1-b1d8-46c1-9a61-e991f28ea53e}, !- Outside Boundary Condition Object
  NoSun,                                  !- Sun Exposure
  NoWind,                                 !- Wind Exposure
  ,                                       !- View Factor to Ground
  ,                                       !- Number of Vertices
  3, 3, 4,                                !- X,Y,Z Vertex 1 {m}
  3, 3, 0,                                !- X,Y,Z Vertex 2 {m}
  3, 19.3383079036887, 0,                 !- X,Y,Z Vertex 3 {m}
  3, 19.3383079036887, 4;                 !- X,Y,Z Vertex 4 {m}

OS:Surface,
  {ecc28b61-2292-45b3-8809-175c1d4815de}, !- Handle
  Surface 5,                              !- Name
  Wall,                                   !- Surface Type
  ,                                       !- Construction Name
  {b0a2ffdf-d98f-454e-9391-db52830c4f44}, !- Space Name
  Surface,                                !- Outside Boundary Condition
  {db7e229c-3776-4d73-907a-852b129d37a3}, !- Outside Boundary Condition Object
  NoSun,                                  !- Sun Exposure
  NoWind,                                 !- Wind Exposure
  ,                                       !- View Factor to Ground
  ,                                       !- Number of Vertices
  0, 0, 4,                                !- X,Y,Z Vertex 1 {m}
  0, 0, 0,                                !- X,Y,Z Vertex 2 {m}
  3, 3, 0,                                !- X,Y,Z Vertex 3 {m}
  3, 3, 4;                                !- X,Y,Z Vertex 4 {m}

OS:Surface,
  {062fbd75-0be7-4f1d-8bd8-c8c3c63591e9}, !- Handle
  Surface 6,                              !- Name
  RoofCeiling,                            !- Surface Type
  ,                                       !- Construction Name
  {b0a2ffdf-d98f-454e-9391-db52830c4f44}, !- Space Name
  Outdoors,                               !- Outside Boundary Condition
  ,                                       !- Outside Boundary Condition Object
  SunExposed,                             !- Sun Exposure
  WindExposed,                            !- Wind Exposure
  ,                                       !- View Factor to Ground
  ,                                       !- Number of Vertices
  3, 3, 4,                                !- X,Y,Z Vertex 1 {m}
  3, 19.3383079036887, 4,                 !- X,Y,Z Vertex 2 {m}
  0, 22.3383079036887, 4,                 !- X,Y,Z Vertex 3 {m}
  0, 0, 4;                                !- X,Y,Z Vertex 4 {m}

OS:Space,
  {068db44a-9fcb-43c8-9d1c-518fdeeaca9b}, !- Handle
  Story 1 North Perimeter Space,          !- Name
  ,                                       !- Space Type Name
  ,                                       !- Default Construction Set Name
  ,                                       !- Default Schedule Set Name
  -0,                                     !- Direction of Relative North {deg}
  3,                                      !- X Origin {m}
  19.3383079036887,                       !- Y Origin {m}
  0,                                      !- Z Origin {m}
  {f5a26494-e3f7-4dc7-b556-b9cd5ded853e}, !- Building Story Name
  {a5afb7f0-b0c1-4a6f-a592-9bb1addffc2c}; !- Thermal Zone Name

OS:Surface,
  {9129f6f5-c776-4f26-aeab-503ed2113a2a}, !- Handle
  Surface 7,                              !- Name
  Floor,                                  !- Surface Type
  ,                                       !- Construction Name
  {068db44a-9fcb-43c8-9d1c-518fdeeaca9b}, !- Space Name
  Ground,                                 !- Outside Boundary Condition
  ,                                       !- Outside Boundary Condition Object
  NoSun,                                  !- Sun Exposure
  NoWind,                                 !- Wind Exposure
  ,                                       !- View Factor to Ground
  ,                                       !- Number of Vertices
  -3, 3.00000000000002, 0,                !- X,Y,Z Vertex 1 {m}
  19.3383079036887, 3.00000000000002, 0,  !- X,Y,Z Vertex 2 {m}
  16.3383079036887, 2.48689957516035e-14, 0, !- X,Y,Z Vertex 3 {m}
  0, 2.48689957516035e-14, 0;             !- X,Y,Z Vertex 4 {m}

OS:Surface,
  {0cb088c0-c121-4553-b38b-3f24f9b22438}, !- Handle
  Surface 8,                              !- Name
  Wall,                                   !- Surface Type
  ,                                       !- Construction Name
  {068db44a-9fcb-43c8-9d1c-518fdeeaca9b}, !- Space Name
  Outdoors,                               !- Outside Boundary Condition
  ,                                       !- Outside Boundary Condition Object
  SunExposed,                             !- Sun Exposure
  WindExposed,                            !- Wind Exposure
  ,                                       !- View Factor to Ground
  ,                                       !- Number of Vertices
  19.3383079036887, 3.00000000000002, 4,  !- X,Y,Z Vertex 1 {m}
  19.3383079036887, 3.00000000000002, 0,  !- X,Y,Z Vertex 2 {m}
  -3, 3.00000000000002, 0,                !- X,Y,Z Vertex 3 {m}
  -3, 3.00000000000002, 4;                !- X,Y,Z Vertex 4 {m}

OS:Surface,
  {a064a0c6-e141-4cda-a079-a035a433fb0f}, !- Handle
  Surface 9,                              !- Name
  Wall,                                   !- Surface Type
  ,                                       !- Construction Name
  {068db44a-9fcb-43c8-9d1c-518fdeeaca9b}, !- Space Name
  Surface,                                !- Outside Boundary Condition
  {58eeab96-514b-45d2-885a-b84451ca594f}, !- Outside Boundary Condition Object
  NoSun,                                  !- Sun Exposure
  NoWind,                                 !- Wind Exposure
  ,                                       !- View Factor to Ground
  ,                                       !- Number of Vertices
  16.3383079036887, 2.48689957516035e-14, 4, !- X,Y,Z Vertex 1 {m}
  16.3383079036887, 2.48689957516035e-14, 0, !- X,Y,Z Vertex 2 {m}
  19.3383079036887, 3.00000000000002, 0,  !- X,Y,Z Vertex 3 {m}
  19.3383079036887, 3.00000000000002, 4;  !- X,Y,Z Vertex 4 {m}

OS:Surface,
  {a8fb5d47-3675-47da-bb2e-9a4f6c3470d0}, !- Handle
  Surface 10,                             !- Name
  Wall,                                   !- Surface Type
  ,                                       !- Construction Name
  {068db44a-9fcb-43c8-9d1c-518fdeeaca9b}, !- Space Name
  Surface,                                !- Outside Boundary Condition
  {2ae0f6ae-daa6-43f7-8d85-c547a047eddb}, !- Outside Boundary Condition Object
  NoSun,                                  !- Sun Exposure
  NoWind,                                 !- Wind Exposure
  ,                                       !- View Factor to Ground
  ,                                       !- Number of Vertices
  0, 2.48689957516035e-14, 4,             !- X,Y,Z Vertex 1 {m}
  0, 2.48689957516035e-14, 0,             !- X,Y,Z Vertex 2 {m}
  16.3383079036887, 2.48689957516035e-14, 0, !- X,Y,Z Vertex 3 {m}
  16.3383079036887, 2.48689957516035e-14, 4; !- X,Y,Z Vertex 4 {m}

OS:Surface,
  {599475cf-9898-47e7-889e-eeac81940394}, !- Handle
  Surface 11,                             !- Name
  Wall,                                   !- Surface Type
  ,                                       !- Construction Name
  {068db44a-9fcb-43c8-9d1c-518fdeeaca9b}, !- Space Name
  Surface,                                !- Outside Boundary Condition
  {978f8064-5f87-4456-854c-492bf04985a6}, !- Outside Boundary Condition Object
  NoSun,                                  !- Sun Exposure
  NoWind,                                 !- Wind Exposure
  ,                                       !- View Factor to Ground
  ,                                       !- Number of Vertices
  -3, 3.00000000000002, 4,                !- X,Y,Z Vertex 1 {m}
  -3, 3.00000000000002, 0,                !- X,Y,Z Vertex 2 {m}
  0, 2.48689957516035e-14, 0,             !- X,Y,Z Vertex 3 {m}
  0, 2.48689957516035e-14, 4;             !- X,Y,Z Vertex 4 {m}

OS:Surface,
  {f0025bea-d628-4601-8595-f1b62ed3324b}, !- Handle
  Surface 12,                             !- Name
  RoofCeiling,                            !- Surface Type
  ,                                       !- Construction Name
  {068db44a-9fcb-43c8-9d1c-518fdeeaca9b}, !- Space Name
  Outdoors,                               !- Outside Boundary Condition
  ,                                       !- Outside Boundary Condition Object
  SunExposed,                             !- Sun Exposure
  WindExposed,                            !- Wind Exposure
  ,                                       !- View Factor to Ground
  ,                                       !- Number of Vertices
  0, 2.48689957516035e-14, 4,             !- X,Y,Z Vertex 1 {m}
  16.3383079036887, 2.48689957516035e-14, 4, !- X,Y,Z Vertex 2 {m}
  19.3383079036887, 3.00000000000002, 4,  !- X,Y,Z Vertex 3 {m}
  -3, 3.00000000000002, 4;                !- X,Y,Z Vertex 4 {m}

OS:Space,
  {8f089324-6e95-47f3-b45d-af41aad66907}, !- Handle
  Story 1 East Perimeter Space,           !- Name
  ,                                       !- Space Type Name
  ,                                       !- Default Construction Set Name
  ,                                       !- Default Schedule Set Name
  -0,                                     !- Direction of Relative North {deg}
  19.3383079036887,                       !- X Origin {m}
  3,                                      !- Y Origin {m}
  0,                                      !- Z Origin {m}
  {f5a26494-e3f7-4dc7-b556-b9cd5ded853e}, !- Building Story Name
  {7fb76089-8aa1-400f-a817-08aa0c23b722}; !- Thermal Zone Name

OS:Surface,
  {086c7a8b-4d1b-43cd-b34d-ab103a0882f7}, !- Handle
  Surface 13,                             !- Name
  Floor,                                  !- Surface Type
  ,                                       !- Construction Name
  {8f089324-6e95-47f3-b45d-af41aad66907}, !- Space Name
  Ground,                                 !- Outside Boundary Condition
  ,                                       !- Outside Boundary Condition Object
  NoSun,                                  !- Sun Exposure
  NoWind,                                 !- Wind Exposure
  ,                                       !- View Factor to Ground
  ,                                       !- Number of Vertices
  3.00000000000002, 19.3383079036887, 0,  !- X,Y,Z Vertex 1 {m}
  3.00000000000002, -3, 0,                !- X,Y,Z Vertex 2 {m}
  2.48689957516035e-14, 0, 0,             !- X,Y,Z Vertex 3 {m}
  2.48689957516035e-14, 16.3383079036887, 0; !- X,Y,Z Vertex 4 {m}

OS:Surface,
  {4b985042-6084-4f15-9b03-efef27442952}, !- Handle
  Surface 14,                             !- Name
  Wall,                                   !- Surface Type
  ,                                       !- Construction Name
  {8f089324-6e95-47f3-b45d-af41aad66907}, !- Space Name
  Outdoors,                               !- Outside Boundary Condition
  ,                                       !- Outside Boundary Condition Object
  SunExposed,                             !- Sun Exposure
  WindExposed,                            !- Wind Exposure
  ,                                       !- View Factor to Ground
  ,                                       !- Number of Vertices
  3.00000000000002, -3, 4,                !- X,Y,Z Vertex 1 {m}
  3.00000000000002, -3, 0,                !- X,Y,Z Vertex 2 {m}
  3.00000000000002, 19.3383079036887, 0,  !- X,Y,Z Vertex 3 {m}
  3.00000000000002, 19.3383079036887, 4;  !- X,Y,Z Vertex 4 {m}

OS:Surface,
  {f3423b18-fe58-4075-a9b7-03427f768ef4}, !- Handle
  Surface 15,                             !- Name
  Wall,                                   !- Surface Type
  ,                                       !- Construction Name
  {8f089324-6e95-47f3-b45d-af41aad66907}, !- Space Name
  Surface,                                !- Outside Boundary Condition
  {9196f470-cd67-47cc-af52-925443215756}, !- Outside Boundary Condition Object
  NoSun,                                  !- Sun Exposure
  NoWind,                                 !- Wind Exposure
  ,                                       !- View Factor to Ground
  ,                                       !- Number of Vertices
  2.48689957516035e-14, 0, 4,             !- X,Y,Z Vertex 1 {m}
  2.48689957516035e-14, 0, 0,             !- X,Y,Z Vertex 2 {m}
  3.00000000000002, -3, 0,                !- X,Y,Z Vertex 3 {m}
  3.00000000000002, -3, 4;                !- X,Y,Z Vertex 4 {m}

OS:Surface,
  {569f955e-349d-413e-aef2-f3c8ced3d2a7}, !- Handle
  Surface 16,                             !- Name
  Wall,                                   !- Surface Type
  ,                                       !- Construction Name
  {8f089324-6e95-47f3-b45d-af41aad66907}, !- Space Name
  Surface,                                !- Outside Boundary Condition
  {f3edbe52-9d56-4720-9279-1beb3bef68f9}, !- Outside Boundary Condition Object
  NoSun,                                  !- Sun Exposure
  NoWind,                                 !- Wind Exposure
  ,                                       !- View Factor to Ground
  ,                                       !- Number of Vertices
  2.48689957516035e-14, 16.3383079036887, 4, !- X,Y,Z Vertex 1 {m}
  2.48689957516035e-14, 16.3383079036887, 0, !- X,Y,Z Vertex 2 {m}
  2.48689957516035e-14, 0, 0,             !- X,Y,Z Vertex 3 {m}
  2.48689957516035e-14, 0, 4;             !- X,Y,Z Vertex 4 {m}

OS:Surface,
  {58eeab96-514b-45d2-885a-b84451ca594f}, !- Handle
  Surface 17,                             !- Name
  Wall,                                   !- Surface Type
  ,                                       !- Construction Name
  {8f089324-6e95-47f3-b45d-af41aad66907}, !- Space Name
  Surface,                                !- Outside Boundary Condition
  {a064a0c6-e141-4cda-a079-a035a433fb0f}, !- Outside Boundary Condition Object
  NoSun,                                  !- Sun Exposure
  NoWind,                                 !- Wind Exposure
  ,                                       !- View Factor to Ground
  ,                                       !- Number of Vertices
  3.00000000000002, 19.3383079036887, 4,  !- X,Y,Z Vertex 1 {m}
  3.00000000000002, 19.3383079036887, 0,  !- X,Y,Z Vertex 2 {m}
  2.48689957516035e-14, 16.3383079036887, 0, !- X,Y,Z Vertex 3 {m}
  2.48689957516035e-14, 16.3383079036887, 4; !- X,Y,Z Vertex 4 {m}

OS:Surface,
  {09a529e5-f0f6-4160-b1cd-5d34aacb4b4f}, !- Handle
  Surface 18,                             !- Name
  RoofCeiling,                            !- Surface Type
  ,                                       !- Construction Name
  {8f089324-6e95-47f3-b45d-af41aad66907}, !- Space Name
  Outdoors,                               !- Outside Boundary Condition
  ,                                       !- Outside Boundary Condition Object
  SunExposed,                             !- Sun Exposure
  WindExposed,                            !- Wind Exposure
  ,                                       !- View Factor to Ground
  ,                                       !- Number of Vertices
  2.48689957516035e-14, 16.3383079036887, 4, !- X,Y,Z Vertex 1 {m}
  2.48689957516035e-14, 0, 4,             !- X,Y,Z Vertex 2 {m}
  3.00000000000002, -3, 4,                !- X,Y,Z Vertex 3 {m}
  3.00000000000002, 19.3383079036887, 4;  !- X,Y,Z Vertex 4 {m}

OS:Space,
  {2eaa0a23-41fe-4dad-9c40-6ae25e2e951e}, !- Handle
  Story 1 South Perimeter Space,          !- Name
  ,                                       !- Space Type Name
  ,                                       !- Default Construction Set Name
  ,                                       !- Default Schedule Set Name
  -0,                                     !- Direction of Relative North {deg}
  0,                                      !- X Origin {m}
  0,                                      !- Y Origin {m}
  0,                                      !- Z Origin {m}
  {f5a26494-e3f7-4dc7-b556-b9cd5ded853e}, !- Building Story Name
  {1659fdf7-89bd-4537-b329-87b79d6b4963}; !- Thermal Zone Name

OS:Surface,
  {58511c3c-ee90-44fb-a07e-b76a05c1ab01}, !- Handle
  Surface 19,                             !- Name
  Floor,                                  !- Surface Type
  ,                                       !- Construction Name
  {2eaa0a23-41fe-4dad-9c40-6ae25e2e951e}, !- Space Name
  Ground,                                 !- Outside Boundary Condition
  ,                                       !- Outside Boundary Condition Object
  NoSun,                                  !- Sun Exposure
  NoWind,                                 !- Wind Exposure
  ,                                       !- View Factor to Ground
  ,                                       !- Number of Vertices
  22.3383079036887, 0, 0,                 !- X,Y,Z Vertex 1 {m}
  0, 0, 0,                                !- X,Y,Z Vertex 2 {m}
  3, 3, 0,                                !- X,Y,Z Vertex 3 {m}
  19.3383079036887, 3, 0;                 !- X,Y,Z Vertex 4 {m}

OS:Surface,
  {9b1de624-946f-4c52-bcba-dbcd4ea12a44}, !- Handle
  Surface 20,                             !- Name
  Wall,                                   !- Surface Type
  ,                                       !- Construction Name
  {2eaa0a23-41fe-4dad-9c40-6ae25e2e951e}, !- Space Name
  Outdoors,                               !- Outside Boundary Condition
  ,                                       !- Outside Boundary Condition Object
  SunExposed,                             !- Sun Exposure
  WindExposed,                            !- Wind Exposure
  ,                                       !- View Factor to Ground
  ,                                       !- Number of Vertices
  0, 0, 4,                                !- X,Y,Z Vertex 1 {m}
  0, 0, 0,                                !- X,Y,Z Vertex 2 {m}
  22.3383079036887, 0, 0,                 !- X,Y,Z Vertex 3 {m}
  22.3383079036887, 0, 4;                 !- X,Y,Z Vertex 4 {m}

OS:Surface,
  {db7e229c-3776-4d73-907a-852b129d37a3}, !- Handle
  Surface 21,                             !- Name
  Wall,                                   !- Surface Type
  ,                                       !- Construction Name
  {2eaa0a23-41fe-4dad-9c40-6ae25e2e951e}, !- Space Name
  Surface,                                !- Outside Boundary Condition
  {ecc28b61-2292-45b3-8809-175c1d4815de}, !- Outside Boundary Condition Object
  NoSun,                                  !- Sun Exposure
  NoWind,                                 !- Wind Exposure
  ,                                       !- View Factor to Ground
  ,                                       !- Number of Vertices
  3, 3, 4,                                !- X,Y,Z Vertex 1 {m}
  3, 3, 0,                                !- X,Y,Z Vertex 2 {m}
  0, 0, 0,                                !- X,Y,Z Vertex 3 {m}
  0, 0, 4;                                !- X,Y,Z Vertex 4 {m}

OS:Surface,
  {598d6895-c2db-43ae-898f-15aeaeb92d9d}, !- Handle
  Surface 22,                             !- Name
  Wall,                                   !- Surface Type
  ,                                       !- Construction Name
  {2eaa0a23-41fe-4dad-9c40-6ae25e2e951e}, !- Space Name
  Surface,                                !- Outside Boundary Condition
  {d3d28043-5aaa-422d-bd52-66ca399082ac}, !- Outside Boundary Condition Object
  NoSun,                                  !- Sun Exposure
  NoWind,                                 !- Wind Exposure
  ,                                       !- View Factor to Ground
  ,                                       !- Number of Vertices
  19.3383079036887, 3, 4,                 !- X,Y,Z Vertex 1 {m}
  19.3383079036887, 3, 0,                 !- X,Y,Z Vertex 2 {m}
  3, 3, 0,                                !- X,Y,Z Vertex 3 {m}
  3, 3, 4;                                !- X,Y,Z Vertex 4 {m}

OS:Surface,
  {9196f470-cd67-47cc-af52-925443215756}, !- Handle
  Surface 23,                             !- Name
  Wall,                                   !- Surface Type
  ,                                       !- Construction Name
  {2eaa0a23-41fe-4dad-9c40-6ae25e2e951e}, !- Space Name
  Surface,                                !- Outside Boundary Condition
  {f3423b18-fe58-4075-a9b7-03427f768ef4}, !- Outside Boundary Condition Object
  NoSun,                                  !- Sun Exposure
  NoWind,                                 !- Wind Exposure
  ,                                       !- View Factor to Ground
  ,                                       !- Number of Vertices
  22.3383079036887, 0, 4,                 !- X,Y,Z Vertex 1 {m}
  22.3383079036887, 0, 0,                 !- X,Y,Z Vertex 2 {m}
  19.3383079036887, 3, 0,                 !- X,Y,Z Vertex 3 {m}
  19.3383079036887, 3, 4;                 !- X,Y,Z Vertex 4 {m}

OS:Surface,
  {d92e757f-d780-435f-8f7b-89d201811bbc}, !- Handle
  Surface 24,                             !- Name
  RoofCeiling,                            !- Surface Type
  ,                                       !- Construction Name
  {2eaa0a23-41fe-4dad-9c40-6ae25e2e951e}, !- Space Name
  Outdoors,                               !- Outside Boundary Condition
  ,                                       !- Outside Boundary Condition Object
  SunExposed,                             !- Sun Exposure
  WindExposed,                            !- Wind Exposure
  ,                                       !- View Factor to Ground
  ,                                       !- Number of Vertices
  19.3383079036887, 3, 4,                 !- X,Y,Z Vertex 1 {m}
  3, 3, 4,                                !- X,Y,Z Vertex 2 {m}
  0, 0, 4,                                !- X,Y,Z Vertex 3 {m}
  22.3383079036887, 0, 4;                 !- X,Y,Z Vertex 4 {m}

OS:Space,
  {2fb78703-4264-4d84-92c2-e0de4a391e6f}, !- Handle
  Story 1 Core Space,                     !- Name
  ,                                       !- Space Type Name
  ,                                       !- Default Construction Set Name
  ,                                       !- Default Schedule Set Name
  -0,                                     !- Direction of Relative North {deg}
  3,                                      !- X Origin {m}
  3,                                      !- Y Origin {m}
  0,                                      !- Z Origin {m}
  {f5a26494-e3f7-4dc7-b556-b9cd5ded853e}, !- Building Story Name
  {2a55fd71-6157-414e-ad57-425344fe2f66}; !- Thermal Zone Name

OS:Surface,
  {551ecb35-51d9-4c98-94d4-c3ace5907008}, !- Handle
  Surface 25,                             !- Name
  Floor,                                  !- Surface Type
  ,                                       !- Construction Name
  {2fb78703-4264-4d84-92c2-e0de4a391e6f}, !- Space Name
  Ground,                                 !- Outside Boundary Condition
  ,                                       !- Outside Boundary Condition Object
  NoSun,                                  !- Sun Exposure
  NoWind,                                 !- Wind Exposure
  ,                                       !- View Factor to Ground
  ,                                       !- Number of Vertices
  0, 0, 0,                                !- X,Y,Z Vertex 1 {m}
  0, 16.3383079036887, 0,                 !- X,Y,Z Vertex 2 {m}
  16.3383079036887, 16.3383079036887, 0,  !- X,Y,Z Vertex 3 {m}
  16.3383079036887, 0, 0;                 !- X,Y,Z Vertex 4 {m}

OS:Surface,
  {89466ae1-b1d8-46c1-9a61-e991f28ea53e}, !- Handle
  Surface 26,                             !- Name
  Wall,                                   !- Surface Type
  ,                                       !- Construction Name
  {2fb78703-4264-4d84-92c2-e0de4a391e6f}, !- Space Name
  Surface,                                !- Outside Boundary Condition
  {9daf8971-fe38-4726-91bc-fa591539b478}, !- Outside Boundary Condition Object
  NoSun,                                  !- Sun Exposure
  NoWind,                                 !- Wind Exposure
  ,                                       !- View Factor to Ground
  ,                                       !- Number of Vertices
  0, 16.3383079036887, 4,                 !- X,Y,Z Vertex 1 {m}
  0, 16.3383079036887, 0,                 !- X,Y,Z Vertex 2 {m}
  0, 0, 0,                                !- X,Y,Z Vertex 3 {m}
  0, 0, 4;                                !- X,Y,Z Vertex 4 {m}

OS:Surface,
  {2ae0f6ae-daa6-43f7-8d85-c547a047eddb}, !- Handle
  Surface 27,                             !- Name
  Wall,                                   !- Surface Type
  ,                                       !- Construction Name
  {2fb78703-4264-4d84-92c2-e0de4a391e6f}, !- Space Name
  Surface,                                !- Outside Boundary Condition
  {a8fb5d47-3675-47da-bb2e-9a4f6c3470d0}, !- Outside Boundary Condition Object
  NoSun,                                  !- Sun Exposure
  NoWind,                                 !- Wind Exposure
  ,                                       !- View Factor to Ground
  ,                                       !- Number of Vertices
  16.3383079036887, 16.3383079036887, 4,  !- X,Y,Z Vertex 1 {m}
  16.3383079036887, 16.3383079036887, 0,  !- X,Y,Z Vertex 2 {m}
  0, 16.3383079036887, 0,                 !- X,Y,Z Vertex 3 {m}
  0, 16.3383079036887, 4;                 !- X,Y,Z Vertex 4 {m}

OS:Surface,
  {f3edbe52-9d56-4720-9279-1beb3bef68f9}, !- Handle
  Surface 28,                             !- Name
  Wall,                                   !- Surface Type
  ,                                       !- Construction Name