
OS:Version,
  {e38d15af-a176-46eb-b92b-3b80cf8da5da}, !- Handle
  0.10.0;                                 !- Version Identifier

OS:BuildingStory,
  {f2ef8636-e09e-455e-a503-6dcaf2319a03}, !- Handle
  Story 1,                                !- Name
  0,                                      !- Nominal Z Coordinate {m}
  4,                                      !- Nominal Floor to Floor Height {m}
  ,                                       !- Default Construction Set Name
  ,                                       !- Default Schedule Set Name
  ;                                       !- Group Rendering Name

OS:Space,
  {5207fde0-c3d7-4c5d-af2c-2af361f383e4}, !- Handle
  Story 1 West Perimeter Space,           !- Name
  ,                                       !- Space Type Name
  ,                                       !- Default Construction Set Name
  ,                                       !- Default Schedule Set Name
  -0,                                     !- Direction of Relative North {deg}
  0,                                      !- X Origin {m}
  0,                                      !- Y Origin {m}
  0,                                      !- Z Origin {m}
  {f2ef8636-e09e-455e-a503-6dcaf2319a03}, !- Building Story Name
  {43095acd-e436-44e3-8d59-92b37a4f8f68}; !- Thermal Zone Name

OS:Surface,
  {e2645e8b-a1cb-4204-a442-0b1e566ab444}, !- Handle
  Surface 1,                              !- Name
  Floor,                                  !- Surface Type
  ,                                       !- Construction Name
  {5207fde0-c3d7-4c5d-af2c-2af361f383e4}, !- Space Name
  Ground,                                 !- Outside Boundary Condition
  ,                                       !- Outside Boundary Condition Object
  NoSun,                                  !- Sun Exposure
  NoWind,                                 !- Wind Exposure
  ,                                       !- View Factor to Ground
  ,                                       !- Number of Vertices
  0, 0, 0,                                !- X,Y,Z Vertex 1 {m}
  0, 14.142135623731, 0,                  !- X,Y,Z Vertex 2 {m}
  3, 11.142135623731, 0,                  !- X,Y,Z Vertex 3 {m}
  3, 3, 0;                                !- X,Y,Z Vertex 4 {m}

OS:Surface,
  {deabe4c4-c846-4144-a1e9-04aabc21ad37}, !- Handle
  Surface 2,                              !- Name
  Wall,                                   !- Surface Type
  ,                                       !- Construction Name
  {5207fde0-c3d7-4c5d-af2c-2af361f383e4}, !- Space Name
  Outdoors,                               !- Outside Boundary Condition
  ,                                       !- Outside Boundary Condition Object
  SunExposed,                             !- Sun Exposure
  WindExposed,                            !- Wind Exposure
  ,                                       !- View Factor to Ground
  ,                                       !- Number of Vertices
  0, 14.142135623731, 4,                  !- X,Y,Z Vertex 1 {m}
  0, 14.142135623731, 0,                  !- X,Y,Z Vertex 2 {m}
  0, 0, 0,                                !- X,Y,Z Vertex 3 {m}
  0, 0, 4;                                !- X,Y,Z Vertex 4 {m}

OS:Surface,
  {fb000fc0-bf4a-4c61-984a-32ff65767e83}, !- Handle
  Surface 3,                              !- Name
  Wall,                                   !- Surface Type
  ,                                       !- Construction Name
  {5207fde0-c3d7-4c5d-af2c-2af361f383e4}, !- Space Name
  Surface,                                !- Outside Boundary Condition
  {639fe12d-06df-47e3-9cd1-f4ff46a55493}, !- Outside Boundary Condition Object
  NoSun,                                  !- Sun Exposure
  NoWind,                                 !- Wind Exposure
  ,                                       !- View Factor to Ground
  ,                                       !- Number of Vertices
  3, 11.142135623731, 4,                  !- X,Y,Z Vertex 1 {m}
  3, 11.142135623731, 0,                  !- X,Y,Z Vertex 2 {m}
  0, 14.142135623731, 0,                  !- X,Y,Z Vertex 3 {m}
  0, 14.142135623731, 4;                  !- X,Y,Z Vertex 4 {m}

OS:Surface,
  {49056e53-d37c-4af2-9514-8aef981c641f}, !- Handle
  Surface 4,                              !- Name
  Wall,                                   !- Surface Type
  ,                                       !- Construction Name
  {5207fde0-c3d7-4c5d-af2c-2af361f383e4}, !- Space Name
  Surface,                                !- Outside Boundary Condition
  {d22d18a9-d33d-4f8d-afbd-0bcff3bb64ce}, !- Outside Boundary Condition Object
  NoSun,                                  !- Sun Exposure
  NoWind,                                 !- Wind Exposure
  ,                                       !- View Factor to Ground
  ,                                       !- Number of Vertices
  3, 3, 4,                                !- X,Y,Z Vertex 1 {m}
  3, 3, 0,                                !- X,Y,Z Vertex 2 {m}
  3, 11.142135623731, 0,                  !- X,Y,Z Vertex 3 {m}
  3, 11.142135623731, 4;                  !- X,Y,Z Vertex 4 {m}

OS:Surface,
  {e65a3d51-fc3c-465d-894a-10967d3fe714}, !- Handle
  Surface 5,                              !- Name
  Wall,                                   !- Surface Type
  ,                                       !- Construction Name
  {5207fde0-c3d7-4c5d-af2c-2af361f383e4}, !- Space Name
  Surface,                                !- Outside Boundary Condition
  {246e27fd-e12a-4e9a-9f51-733f2d3d1433}, !- Outside Boundary Condition Object
  NoSun,                                  !- Sun Exposure
  NoWind,                                 !- Wind Exposure
  ,                                       !- View Factor to Ground
  ,                                       !- Number of Vertices
  0, 0, 4,                                !- X,Y,Z Vertex 1 {m}
  0, 0, 0,                                !- X,Y,Z Vertex 2 {m}
  3, 3, 0,                                !- X,Y,Z Vertex 3 {m}
  3, 3, 4;                                !- X,Y,Z Vertex 4 {m}

OS:Surface,
  {c939755e-24f1-499e-aef4-7561607bdf46}, !- Handle
  Surface 6,                              !- Name
  RoofCeiling,                            !- Surface Type
  ,                                       !- Construction Name
  {5207fde0-c3d7-4c5d-af2c-2af361f383e4}, !- Space Name
  Outdoors,                               !- Outside Boundary Condition
  ,                                       !- Outside Boundary Condition Object
  SunExposed,                             !- Sun Exposure
  WindExposed,                            !- Wind Exposure
  ,                                       !- View Factor to Ground
  ,                                       !- Number of Vertices
  3, 3, 4,                                !- X,Y,Z Vertex 1 {m}
  3, 11.142135623731, 4,                  !- X,Y,Z Vertex 2 {m}
  0, 14.142135623731, 4,                  !- X,Y,Z Vertex 3 {m}
  0, 0, 4;                                !- X,Y,Z Vertex 4 {m}

OS:Space,
  {f43c7283-5465-4c4a-b05d-6539ad29348d}, !- Handle
  Story 1 North Perimeter Space,          !- Name
  ,                                       !- Space Type Name
  ,                                       !- Default Construction Set Name
  ,                                       !- Default Schedule Set Name
  -0,                                     !- Direction of Relative North {deg}
  3,                                      !- X Origin {m}
  11.142135623731,                        !- Y Origin {m}
  0,                                      !- Z Origin {m}
  {f2ef8636-e09e-455e-a503-6dcaf2319a03}, !- Building Story Name
  {60ae4519-7fd5-4c01-8f36-46b13d63a7ea}; !- Thermal Zone Name

OS:Surface,
  {2d516ced-8bd4-4d9d-878e-0c7c44f90238}, !- Handle
  Surface 7,                              !- Name
  Floor,                                  !- Surface Type
  ,                                       !- Construction Name
  {f43c7283-5465-4c4a-b05d-6539ad29348d}, !- Space Name
  Ground,                                 !- Outside Boundary Condition
  ,                                       !- Outside Boundary Condition Object
  NoSun,                                  !- Sun Exposure
  NoWind,                                 !- Wind Exposure
  ,                                       !- View Factor to Ground
  ,                                       !- Number of Vertices
  -3, 3.00000000000005, 0,                !- X,Y,Z Vertex 1 {m}
  11.142135623731, 3.00000000000005, 0,   !- X,Y,Z Vertex 2 {m}
  8.142135623731, 4.9737991503207e-14, 0, !- X,Y,Z Vertex 3 {m}
  0, 4.9737991503207e-14, 0;              !- X,Y,Z Vertex 4 {m}

OS:Surface,
  {25202fd2-37b3-4057-9f3a-8ba6344cbf8d}, !- Handle
  Surface 8,                              !- Name
  Wall,                                   !- Surface Type
  ,                                       !- Construction Name
  {f43c7283-5465-4c4a-b05d-6539ad29348d}, !- Space Name
  Outdoors,                               !- Outside Boundary Condition
  ,                                       !- Outside Boundary Condition Object
  SunExposed,                             !- Sun Exposure
  WindExposed,                            !- Wind Exposure
  ,                                       !- View Factor to Ground
  ,                                       !- Number of Vertices
  11.142135623731, 3.00000000000005, 4,   !- X,Y,Z Vertex 1 {m}
  11.142135623731, 3.00000000000005, 0,   !- X,Y,Z Vertex 2 {m}
  -3, 3.00000000000005, 0,                !- X,Y,Z Vertex 3 {m}
  -3, 3.00000000000005, 4;                !- X,Y,Z Vertex 4 {m}

OS:Surface,
  {f5815ebe-8531-4d77-b8b7-c7528b6fcfa2}, !- Handle
  Surface 9,                              !- Name
  Wall,                                   !- Surface Type
  ,                                       !- Construction Name
  {f43c7283-5465-4c4a-b05d-6539ad29348d}, !- Space Name
  Surface,                                !- Outside Boundary Condition
  {c3f3d44b-2e91-4874-9144-962206c9bd57}, !- Outside Boundary Condition Object
  NoSun,                                  !- Sun Exposure
  NoWind,                                 !- Wind Exposure
  ,                                       !- View Factor to Ground
  ,                                       !- Number of Vertices
  8.142135623731, 4.9737991503207e-14, 4, !- X,Y,Z Vertex 1 {m}
  8.142135623731, 4.9737991503207e-14, 0, !- X,Y,Z Vertex 2 {m}
  11.142135623731, 3.00000000000005, 0,   !- X,Y,Z Vertex 3 {m}
  11.142135623731, 3.00000000000005, 4;   !- X,Y,Z Vertex 4 {m}

OS:Surface,
  {f647ed31-4336-45a9-8b50-280fa20bd8fa}, !- Handle
  Surface 10,                             !- Name
  Wall,                                   !- Surface Type
  ,                                       !- Construction Name
  {f43c7283-5465-4c4a-b05d-6539ad29348d}, !- Space Name
  Surface,                                !- Outside Boundary Condition
  {1f502e97-ddea-482c-8cd3-3b38e21622ad}, !- Outside Boundary Condition Object
  NoSun,                                  !- Sun Exposure
  NoWind,                                 !- Wind Exposure
  ,                                       !- View Factor to Ground
  ,                                       !- Number of Vertices
  0, 4.9737991503207e-14, 4,              !- X,Y,Z Vertex 1 {m}
  0, 4.9737991503207e-14, 0,              !- X,Y,Z Vertex 2 {m}
  8.142135623731, 4.9737991503207e-14, 0, !- X,Y,Z Vertex 3 {m}
  8.142135623731, 4.9737991503207e-14, 4; !- X,Y,Z Vertex 4 {m}

OS:Surface,
  {639fe12d-06df-47e3-9cd1-f4ff46a55493}, !- Handle
  Surface 11,                             !- Name
  Wall,                                   !- Surface Type
  ,                                       !- Construction Name
  {f43c7283-5465-4c4a-b05d-6539ad29348d}, !- Space Name
  Surface,                                !- Outside Boundary Condition
  {fb000fc0-bf4a-4c61-984a-32ff65767e83}, !- Outside Boundary Condition Object
  NoSun,                                  !- Sun Exposure
  NoWind,                                 !- Wind Exposure
  ,                                       !- View Factor to Ground
  ,                                       !- Number of Vertices
  -3, 3.00000000000005, 4,                !- X,Y,Z Vertex 1 {m}
  -3, 3.00000000000005, 0,                !- X,Y,Z Vertex 2 {m}
  0, 4.9737991503207e-14, 0,              !- X,Y,Z Vertex 3 {m}
  0, 4.9737991503207e-14, 4;              !- X,Y,Z Vertex 4 {m}

OS:Surface,
  {ca747c27-dcf3-4d0d-86af-b123e2b6dbb3}, !- Handle
  Surface 12,                             !- Name
  RoofCeiling,                            !- Surface Type
  ,                                       !- Construction Name
  {f43c7283-5465-4c4a-b05d-6539ad29348d}, !- Space Name
  Outdoors,                               !- Outside Boundary Condition
  ,                                       !- Outside Boundary Condition Object
  SunExposed,                             !- Sun Exposure
  WindExposed,                            !- Wind Exposure
  ,                                       !- View Factor to Ground
  ,                                       !- Number of Vertices
  0, 4.9737991503207e-14, 4,              !- X,Y,Z Vertex 1 {m}
  8.142135623731, 4.9737991503207e-14, 4, !- X,Y,Z Vertex 2 {m}
  11.142135623731, 3.00000000000005, 4,   !- X,Y,Z Vertex 3 {m}
  -3, 3.00000000000005, 4;                !- X,Y,Z Vertex 4 {m}

OS:Space,
  {d53d937c-2f4f-4324-bd35-b9da243328e4}, !- Handle
  Story 1 East Perimeter Space,           !- Name
  ,                                       !- Space Type Name
  ,                                       !- Default Construction Set Name
  ,                                       !- Default Schedule Set Name
  -0,                                     !- Direction of Relative North {deg}
  11.142135623731,                        !- X Origin {m}
  3,                                      !- Y Origin {m}
  0,                                      !- Z Origin {m}
  {f2ef8636-e09e-455e-a503-6dcaf2319a03}, !- Building Story Name
  {5d4b0277-1f45-453e-844d-5f3340ce8d20}; !- Thermal Zone Name

OS:Surface,
  {7482e751-ce97-46e2-bf0d-eddc29c8f88c}, !- Handle
  Surface 13,                             !- Name
  Floor,                                  !- Surface Type
  ,                                       !- Construction Name
  {d53d937c-2f4f-4324-bd35-b9da243328e4}, !- Space Name
  Ground,                                 !- Outside Boundary Condition
  ,                                       !- Outside Boundary Condition Object
  NoSun,                                  !- Sun Exposure
  NoWind,                                 !- Wind Exposure
  ,                                       !- View Factor to Ground
  ,                                       !- Number of Vertices
  3.00000000000005, 11.142135623731, 0,   !- X,Y,Z Vertex 1 {m}
  3.00000000000005, -3, 0,                !- X,Y,Z Vertex 2 {m}
  4.9737991503207e-14, 0, 0,              !- X,Y,Z Vertex 3 {m}
  4.9737991503207e-14, 8.142135623731, 0; !- X,Y,Z Vertex 4 {m}

OS:Surface,
  {de16106d-9d17-40d9-a3e8-1c9ff1665e5b}, !- Handle
  Surface 14,                             !- Name
  Wall,                                   !- Surface Type
  ,                                       !- Construction Name
  {d53d937c-2f4f-4324-bd35-b9da243328e4}, !- Space Name
  Outdoors,                               !- Outside Boundary Condition
  ,                                       !- Outside Boundary Condition Object
  SunExposed,                             !- Sun Exposure
  WindExposed,                            !- Wind Exposure
  ,                                       !- View Factor to Ground
  ,                                       !- Number of Vertices
  3.00000000000005, -3, 4,                !- X,Y,Z Vertex 1 {m}
  3.00000000000005, -3, 0,                !- X,Y,Z Vertex 2 {m}
  3.00000000000005, 11.142135623731, 0,   !- X,Y,Z Vertex 3 {m}
  3.00000000000005, 11.142135623731, 4;   !- X,Y,Z Vertex 4 {m}

OS:Surface,
  {a03a95d4-a1a6-4d77-ac2a-bb10d5fb5f5d}, !- Handle
  Surface 15,                             !- Name
  Wall,                                   !- Surface Type
  ,                                       !- Construction Name
  {d53d937c-2f4f-4324-bd35-b9da243328e4}, !- Space Name
  Surface,                                !- Outside Boundary Condition
  {d75f3edb-0b39-4ecc-bced-ebeaec102087}, !- Outside Boundary Condition Object
  NoSun,                                  !- Sun Exposure
  NoWind,                                 !- Wind Exposure
  ,                                       !- View Factor to Ground
  ,                                       !- Number of Vertices
  4.9737991503207e-14, 0, 4,              !- X,Y,Z Vertex 1 {m}
  4.9737991503207e-14, 0, 0,              !- X,Y,Z Vertex 2 {m}
  3.00000000000005, -3, 0,                !- X,Y,Z Vertex 3 {m}
  3.00000000000005, -3, 4;                !- X,Y,Z Vertex 4 {m}

OS:Surface,
  {de56ac66-e60b-47b2-a4ed-f4650a54b74b}, !- Handle
  Surface 16,                             !- Name
  Wall,                                   !- Surface Type
  ,                                       !- Construction Name
  {d53d937c-2f4f-4324-bd35-b9da243328e4}, !- Space Name
  Surface,                                !- Outside Boundary Condition
  {94302596-c94b-4efe-bab5-daf537689ae4}, !- Outside Boundary Condition Object
  NoSun,                                  !- Sun Exposure
  NoWind,                                 !- Wind Exposure
  ,                                       !- View Factor to Ground
  ,                                       !- Number of Vertices
  4.9737991503207e-14, 8.142135623731, 4, !- X,Y,Z Vertex 1 {m}
  4.9737991503207e-14, 8.142135623731, 0, !- X,Y,Z Vertex 2 {m}
  4.9737991503207e-14, 0, 0,              !- X,Y,Z Vertex 3 {m}
  4.9737991503207e-14, 0, 4;              !- X,Y,Z Vertex 4 {m}

OS:Surface,
  {c3f3d44b-2e91-4874-9144-962206c9bd57}, !- Handle
  Surface 17,                             !- Name
  Wall,                                   !- Surface Type
  ,                                       !- Construction Name
  {d53d937c-2f4f-4324-bd35-b9da243328e4}, !- Space Name
  Surface,                                !- Outside Boundary Condition
  {f5815ebe-8531-4d77-b8b7-c7528b6fcfa2}, !- Outside Boundary Condition Object
  NoSun,                                  !- Sun Exposure
  NoWind,                                 !- Wind Exposure
  ,                                       !- View Factor to Ground
  ,                                       !- Number of Vertices
  3.00000000000005, 11.142135623731, 4,   !- X,Y,Z Vertex 1 {m}
  3.00000000000005, 11.142135623731, 0,   !- X,Y,Z Vertex 2 {m}
  4.9737991503207e-14, 8.142135623731, 0, !- X,Y,Z Vertex 3 {m}
  4.9737991503207e-14, 8.142135623731, 4; !- X,Y,Z Vertex 4 {m}

OS:Surface,
  {1be7326e-b58f-4990-b88b-7aae625a6fe6}, !- Handle
  Surface 18,                             !- Name
  RoofCeiling,                            !- Surface Type
  ,                                       !- Construction Name
  {d53d937c-2f4f-4324-bd35-b9da243328e4}, !- Space Name
  Outdoors,                               !- Outside Boundary Condition
  ,                                       !- Outside Boundary Condition Object
  SunExposed,                             !- Sun Exposure
  WindExposed,                            !- Wind Exposure
  ,                                       !- View Factor to Ground
  ,                                       !- Number of Vertices
  4.9737991503207e-14, 8.142135623731, 4, !- X,Y,Z Vertex 1 {m}
  4.9737991503207e-14, 0, 4,              !- X,Y,Z Vertex 2 {m}
  3.00000000000005, -3, 4,                !- X,Y,Z Vertex 3 {m}
  3.00000000000005, 11.142135623731, 4;   !- X,Y,Z Vertex 4 {m}

OS:Space,
  {ab284695-25be-485c-80df-5ed9f7ef3302}, !- Handle
  Story 1 South Perimeter Space,          !- Name
  ,                                       !- Space Type Name
  ,                                       !- Default Construction Set Name
  ,                                       !- Default Schedule Set Name
  -0,                                     !- Direction of Relative North {deg}
  0,                                      !- X Origin {m}
  0,                                      !- Y Origin {m}
  0,                                      !- Z Origin {m}
  {f2ef8636-e09e-455e-a503-6dcaf2319a03}, !- Building Story Name
  {48c43daa-e919-49f8-8048-05a23ce9fd9b}; !- Thermal Zone Name

OS:Surface,
  {bc88bcc4-b592-4b8c-a523-f23f775057e0}, !- Handle
  Surface 19,                             !- Name
  Floor,                                  !- Surface Type
  ,                                       !- Construction Name
  {ab284695-25be-485c-80df-5ed9f7ef3302}, !- Space Name
  Ground,                                 !- Outside Boundary Condition
  ,                                       !- Outside Boundary Condition Object
  NoSun,                                  !- Sun Exposure
  NoWind,                                 !- Wind Exposure
  ,                                       !- View Factor to Ground
  ,                                       !- Number of Vertices
  14.142135623731, 0, 0,                  !- X,Y,Z Vertex 1 {m}
  0, 0, 0,                                !- X,Y,Z Vertex 2 {m}
  3, 3, 0,                                !- X,Y,Z Vertex 3 {m}
  11.142135623731, 3, 0;                  !- X,Y,Z Vertex 4 {m}

OS:Surface,
  {e67d78fc-eb82-4517-9e96-88b60e32c163}, !- Handle
  Surface 20,                             !- Name
  Wall,                                   !- Surface Type
  ,                                       !- Construction Name
  {ab284695-25be-485c-80df-5ed9f7ef3302}, !- Space Name
  Outdoors,                               !- Outside Boundary Condition
  ,                                       !- Outside Boundary Condition Object
  SunExposed,                             !- Sun Exposure
  WindExposed,                            !- Wind Exposure
  ,                                       !- View Factor to Ground
  ,                                       !- Number of Vertices
  0, 0, 4,                                !- X,Y,Z Vertex 1 {m}
  0, 0, 0,                                !- X,Y,Z Vertex 2 {m}
  14.142135623731, 0, 0,                  !- X,Y,Z Vertex 3 {m}
  14.142135623731, 0, 4;                  !- X,Y,Z Vertex 4 {m}

OS:Surface,
  {246e27fd-e12a-4e9a-9f51-733f2d3d1433}, !- Handle
  Surface 21,                             !- Name
  Wall,                                   !- Surface Type
  ,                                       !- Construction Name
  {ab284695-25be-485c-80df-5ed9f7ef3302}, !- Space Name
  Surface,                                !- Outside Boundary Condition
  {e65a3d51-fc3c-465d-894a-10967d3fe714}, !- Outside Boundary Condition Object
  NoSun,                                  !- Sun Exposure
  NoWind,                                 !- Wind Exposure
  ,                                       !- View Factor to Ground
  ,                                       !- Number of Vertices
  3, 3, 4,                                !- X,Y,Z Vertex 1 {m}
  3, 3, 0,                                !- X,Y,Z Vertex 2 {m}
  0, 0, 0,                                !- X,Y,Z Vertex 3 {m}
  0, 0, 4;                                !- X,Y,Z Vertex 4 {m}

OS:Surface,
  {15176b22-a66c-44b9-bda0-1a275d384abf}, !- Handle
  Surface 22,                             !- Name
  Wall,                                   !- Surface Type
  ,                                       !- Construction Name
  {ab284695-25be-485c-80df-5ed9f7ef3302}, !- Space Name
  Surface,                                !- Outside Boundary Condition
  {a4c51cff-4034-4713-9ee9-09d5501e6864}, !- Outside Boundary Condition Object
  NoSun,                                  !- Sun Exposure
  NoWind,                                 !- Wind Exposure
  ,                                       !- View Factor to Ground
  ,                                       !- Number of Vertices
  11.142135623731, 3, 4,                  !- X,Y,Z Vertex 1 {m}
  11.142135623731, 3, 0,                  !- X,Y,Z Vertex 2 {m}
  3, 3, 0,                                !- X,Y,Z Vertex 3 {m}
  3, 3, 4;                                !- X,Y,Z Vertex 4 {m}

OS:Surface,
  {d75f3edb-0b39-4ecc-bced-ebeaec102087}, !- Handle
  Surface 23,                             !- Name
  Wall,                                   !- Surface Type
  ,                                       !- Construction Name
  {ab284695-25be-485c-80df-5ed9f7ef3302}, !- Space Name
  Surface,                                !- Outside Boundary Condition
  {a03a95d4-a1a6-4d77-ac2a-bb10d5fb5f5d}, !- Outside Boundary Condition Object
  NoSun,                                  !- Sun Exposure
  NoWind,                                 !- Wind Exposure
  ,                                       !- View Factor to Ground
  ,                                       !- Number of Vertices
  14.142135623731, 0, 4,                  !- X,Y,Z Vertex 1 {m}
  14.142135623731, 0, 0,                  !- X,Y,Z Vertex 2 {m}
  11.142135623731, 3, 0,                  !- X,Y,Z Vertex 3 {m}
  11.142135623731, 3, 4;                  !- X,Y,Z Vertex 4 {m}

OS:Surface,
  {aa0da831-66d4-47d2-a56e-c5d8e483930f}, !- Handle
  Surface 24,                             !- Name
  RoofCeiling,                            !- Surface Type
  ,                                       !- Construction Name
  {ab284695-25be-485c-80df-5ed9f7ef3302}, !- Space Name
  Outdoors,                               !- Outside Boundary Condition
  ,                                       !- Outside Boundary Condition Object
  SunExposed,                             !- Sun Exposure
  WindExposed,                            !- Wind Exposure
  ,                                       !- View Factor to Ground
  ,                                       !- Number of Vertices
  11.142135623731, 3, 4,                  !- X,Y,Z Vertex 1 {m}
  3, 3, 4,                                !- X,Y,Z Vertex 2 {m}
  0, 0, 4,                                !- X,Y,Z Vertex 3 {m}
  14.142135623731, 0, 4;                  !- X,Y,Z Vertex 4 {m}

OS:Space,
  {c670ef0b-e762-4e0b-85de-e9b18440966d}, !- Handle
  Story 1 Core Space,                     !- Name
  ,                                       !- Space Type Name
  ,                                       !- Default Construction Set Name
  ,                                       !- Default Schedule Set Name
  -0,                                     !- Direction of Relative North {deg}
  3,                                      !- X Origin {m}
  3,                                      !- Y Origin {m}
  0,                                      !- Z Origin {m}
  {f2ef8636-e09e-455e-a503-6dcaf2319a03}, !- Building Story Name
  {cd44c5c8-af25-46e5-b901-fee86728dbef}; !- Thermal Zone Name

OS:Surface,
  {45a0b79b-0261-4430-85ed-7897bba322c5}, !- Handle
  Surface 25,                             !- Name
  Floor,                                  !- Surface Type
  ,                                       !- Construction Name
  {c670ef0b-e762-4e0b-85de-e9b18440966d}, !- Space Name
  Ground,                                 !- Outside Boundary Condition
  ,                                       !- Outside Boundary Condition Object
  NoSun,                                  !- Sun Exposure
  NoWind,                                 !- Wind Exposure
  ,                                       !- View Factor to Ground
  ,                                       !- Number of Vertices
  0, 0, 0,                                !- X,Y,Z Vertex 1 {m}
  0, 8.142135623731, 0,                   !- X,Y,Z Vertex 2 {m}
  8.142135623731, 8.142135623731, 0,      !- X,Y,Z Vertex 3 {m}
  8.142135623731, 0, 0;                   !- X,Y,Z Vertex 4 {m}

OS:Surface,
  {d22d18a9-d33d-4f8d-afbd-0bcff3bb64ce}, !- Handle
  Surface 26,                             !- Name
  Wall,                                   !- Surface Type
  ,                                       !- Construction Name
  {c670ef0b-e762-4e0b-85de-e9b18440966d}, !- Space Name
  Surface,                                !- Outside Boundary Condition
  {49056e53-d37c-4af2-9514-8aef981c641f}, !- Outside Boundary Condition Object
  NoSun,                                  !- Sun Exposure
  NoWind,                                 !- Wind Exposure
  ,                                       !- View Factor to Ground
  ,                                       !- Number of Vertices
  0, 8.142135623731, 4,                   !- X,Y,Z Vertex 1 {m}
  0, 8.142135623731, 0,                   !- X,Y,Z Vertex 2 {m}
  0, 0, 0,                                !- X,Y,Z Vertex 3 {m}
  0, 0, 4;                                !- X,Y,Z Vertex 4 {m}

OS:Surface,
  {1f502e97-ddea-482c-8cd3-3b38e21622ad}, !- Handle
  Surface 27,                             !- Name
  Wall,                                   !- Surface Type
  ,                                       !- Construction Name
  {c670ef0b-e762-4e0b-85de-e9b18440966d}, !- Space Name
  Surface,                                !- Outside Boundary Condition
  {f647ed31-4336-45a9-8b50-280fa20bd8fa}, !- Outside Boundary Condition Object
  NoSun,                                  !- Sun Exposure
  NoWind,                                 !- Wind Exposure
  ,                                       !- View Factor to Ground
  ,                                       !- Number of Vertices
  8.142135623731, 8.142135623731, 4,      !- X,Y,Z Vertex 1 {m}
  8.142135623731, 8.142135623731, 0,      !- X,Y,Z Vertex 2 {m}
  0, 8.142135623731, 0,                   !- X,Y,Z Vertex 3 {m}
  0, 8.142135623731, 4;                   !- X,Y,Z Vertex 4 {m}

OS:Surface,
  {94302596-c94b-4efe-bab5-daf537689ae4}, !- Handle
  Surface 28,                             !- Name
  Wall,                                   !- Surface Type
  ,                                       !- Construction Name
  {c670ef0b-e762-4e0b-85de-e9b18440966d}, !- Space Name