
OS:Version,
  {f9aec8c5-95f9-4b17-b798-885f7d078c70}, !- Handle
  0.10.0;                                 !- Version Identifier

OS:BuildingStory,
  {0b1a40f8-272c-48a3-bcb4-73dc12c0842a}, !- Handle
  Story 1,                                !- Name
  0,                                      !- Nominal Z Coordinate {m}
  4,                                      !- Nominal Floor to Floor Height {m}
  ,                                       !- Default Construction Set Name
  ,                                       !- Default Schedule Set Name
  ;                                       !- Group Rendering Name

OS:Space,
  {c6682fc9-6262-4e66-9fc3-20656af52495}, !- Handle
  Story 1 West Perimeter Space,           !- Name
  ,                                       !- Space Type Name
  ,                                       !- Default Construction Set Name
  ,                                       !- Default Schedule Set Name
  -0,                                     !- Direction of Relative North {deg}
  0,                                      !- X Origin {m}
  0,                                      !- Y Origin {m}
  0,                                      !- Z Origin {m}
  {0b1a40f8-272c-48a3-bcb4-73dc12c0842a}, !- Building Story Name
  {07e02c9e-fc0e-45ab-834b-4e2d5f1e4828}; !- Thermal Zone Name

OS:Surface,
  {a3c090bc-d2c9-4ac9-bc35-a2c986f1d982}, !- Handle
  Surface 1,                              !- Name
  Floor,                                  !- Surface Type
  ,                                       !- Construction Name
  {c6682fc9-6262-4e66-9fc3-20656af52495}, !- Space Name
  Ground,                                 !- Outside Boundary Condition
  ,                                       !- Outside Boundary Condition Object
  NoSun,                                  !- Sun Exposure
  NoWind,                                 !- Wind Exposure
  ,                                       !- View Factor to Ground
  ,                                       !- Number of Vertices
  0, 0, 0,                                !- X,Y,Z Vertex 1 {m}
  0, 20, 0,                               !- X,Y,Z Vertex 2 {m}
  3, 17, 0,                               !- X,Y,Z Vertex 3 {m}
  3, 3, 0;                                !- X,Y,Z Vertex 4 {m}

OS:Surface,
  {e1bf9716-0f29-4ae6-88c6-fa8ef4cbd217}, !- Handle
  Surface 2,                              !- Name
  Wall,                                   !- Surface Type
  ,                                       !- Construction Name
  {c6682fc9-6262-4e66-9fc3-20656af52495}, !- Space Name
  Outdoors,                               !- Outside Boundary Condition
  ,                                       !- Outside Boundary Condition Object
  SunExposed,                             !- Sun Exposure
  WindExposed,                            !- Wind Exposure
  ,                                       !- View Factor to Ground
  ,                                       !- Number of Vertices
  0, 20, 4,                               !- X,Y,Z Vertex 1 {m}
  0, 20, 0,                               !- X,Y,Z Vertex 2 {m}
  0, 0, 0,                                !- X,Y,Z Vertex 3 {m}
  0, 0, 4;                                !- X,Y,Z Vertex 4 {m}

OS:Surface,
  {5deddcef-3d3b-43a5-ac87-349febd7008e}, !- Handle
  Surface 3,                              !- Name
  Wall,                                   !- Surface Type
  ,                                       !- Construction Name
  {c6682fc9-6262-4e66-9fc3-20656af52495}, !- Space Name
  Surface,                                !- Outside Boundary Condition
  {f9bbccb4-70e1-4920-aa6d-152c703b91f6}, !- Outside Boundary Condition Object
  NoSun,                                  !- Sun Exposure
  NoWind,                                 !- Wind Exposure
  ,                                       !- View Factor to Ground
  ,                                       !- Number of Vertices
  3, 17, 4,                               !- X,Y,Z Vertex 1 {m}
  3, 17, 0,                               !- X,Y,Z Vertex 2 {m}
  0, 20, 0,                               !- X,Y,Z Vertex 3 {m}
  0, 20, 4;                               !- X,Y,Z Vertex 4 {m}

OS:Surface,
  {80063402-c963-4151-ad66-5d39e291f139}, !- Handle
  Surface 4,                              !- Name
  Wall,                                   !- Surface Type
  ,                                       !- Construction Name
  {c6682fc9-6262-4e66-9fc3-20656af52495}, !- Space Name
  Surface,                                !- Outside Boundary Condition
  {6ce228b3-24cf-4bf1-94ed-2db6a5f284a3}, !- Outside Boundary Condition Object
  NoSun,                                  !- Sun Exposure
  NoWind,                                 !- Wind Exposure
  ,                                       !- View Factor to Ground
  ,                                       !- Number of Vertices
  3, 3, 4,                                !- X,Y,Z Vertex 1 {m}
  3, 3, 0,                                !- X,Y,Z Vertex 2 {m}
  3, 17, 0,                               !- X,Y,Z Vertex 3 {m}
  3, 17, 4;                               !- X,Y,Z Vertex 4 {m}

OS:Surface,
  {7f07c33b-d0b2-44d4-a440-3ec9ba941290}, !- Handle
  Surface 5,                              !- Name
  Wall,                                   !- Surface Type
  ,                                       !- Construction Name
  {c6682fc9-6262-4e66-9fc3-20656af52495}, !- Space Name
  Surface,                                !- Outside Boundary Condition
  {35ac404e-cc18-4ba1-bec5-2bb4eec149f5}, !- Outside Boundary Condition Object
  NoSun,                                  !- Sun Exposure
  NoWind,                                 !- Wind Exposure
  ,                                       !- View Factor to Ground
  ,                                       !- Number of Vertices
  0, 0, 4,                                !- X,Y,Z Vertex 1 {m}
  0, 0, 0,                                !- X,Y,Z Vertex 2 {m}
  3, 3, 0,                                !- X,Y,Z Vertex 3 {m}
  3, 3, 4;                                !- X,Y,Z Vertex 4 {m}

OS:Surface,
  {ba2eb5ca-cf5a-4541-99fc-949397aa85ab}, !- Handle
  Surface 6,                              !- Name
  RoofCeiling,                            !- Surface Type
  ,                                       !- Construction Name
  {c6682fc9-6262-4e66-9fc3-20656af52495}, !- Space Name
  Surface,                                !- Outside Boundary Condition
  {83d36291-d36b-4d03-8262-e092f6fad26f}, !- Outside Boundary Condition Object
  NoSun,                                  !- Sun Exposure
  NoWind,                                 !- Wind Exposure
  ,                                       !- View Factor to Ground
  ,                                       !- Number of Vertices
  3, 3, 4,                                !- X,Y,Z Vertex 1 {m}
  3, 17, 4,                               !- X,Y,Z Vertex 2 {m}
  0, 20, 4,                               !- X,Y,Z Vertex 3 {m}
  0, 0, 4;                                !- X,Y,Z Vertex 4 {m}

OS:Space,
  {95593524-d91a-47ea-b4e0-b336811f6365}, !- Handle
  Story 1 North Perimeter Space,          !- Name
  ,                                       !- Space Type Name
  ,                                       !- Default Construction Set Name
  ,                                       !- Default Schedule Set Name
  -0,                                     !- Direction of Relative North {deg}
  3,                                      !- X Origin {m}
  17,                                     !- Y Origin {m}
  0,                                      !- Z Origin {m}
  {0b1a40f8-272c-48a3-bcb4-73dc12c0842a}, !- Building Story Name
  {e48510bb-18a2-4562-ae89-f174d3d94589}; !- Thermal Zone Name

OS:Surface,
  {922a9923-09e3-48d4-84f4-92562fea0f0b}, !- Handle
  Surface 7,                              !- Name
  Floor,                                  !- Surface Type
  ,                                       !- Construction Name
  {95593524-d91a-47ea-b4e0-b336811f6365}, !- Space Name
  Ground,                                 !- Outside Boundary Condition
  ,                                       !- Outside Boundary Condition Object
  NoSun,                                  !- Sun Exposure
  NoWind,                                 !- Wind Exposure
  ,                                       !- View Factor to Ground
  ,                                       !- Number of Vertices
  -3, 3, 0,                               !- X,Y,Z Vertex 1 {m}
  17, 3, 0,                               !- X,Y,Z Vertex 2 {m}
  14, 0, 0,                               !- X,Y,Z Vertex 3 {m}
  0, 0, 0;                                !- X,Y,Z Vertex 4 {m}

OS:Surface,
  {b2409c07-fd7b-4624-85b2-914215b688a6}, !- Handle
  Surface 8,                              !- Name
  Wall,                                   !- Surface Type
  ,                                       !- Construction Name
  {95593524-d91a-47ea-b4e0-b336811f6365}, !- Space Name
  Outdoors,                               !- Outside Boundary Condition
  ,                                       !- Outside Boundary Condition Object
  SunExposed,                             !- Sun Exposure
  WindExposed,                            !- Wind Exposure
  ,                                       !- View Factor to Ground
  ,                                       !- Number of Vertices
  17, 3, 4,                               !- X,Y,Z Vertex 1 {m}
  17, 3, 0,                               !- X,Y,Z Vertex 2 {m}
  -3, 3, 0,                               !- X,Y,Z Vertex 3 {m}
  -3, 3, 4;                               !- X,Y,Z Vertex 4 {m}

OS:Surface,
  {41b80f7a-052d-4f2e-9e43-48548e9cb349}, !- Handle
  Surface 9,                              !- Name
  Wall,                                   !- Surface Type
  ,                                       !- Construction Name
  {95593524-d91a-47ea-b4e0-b336811f6365}, !- Space Name
  Surface,                                !- Outside Boundary Condition
  {2856fda7-6b62-457b-9269-37373b2cf286}, !- Outside Boundary Condition Object
  NoSun,                                  !- Sun Exposure
  NoWind,                                 !- Wind Exposure
  ,                                       !- View Factor to Ground
  ,                                       !- Number of Vertices
  14, 0, 4,                               !- X,Y,Z Vertex 1 {m}
  14, 0, 0,                               !- X,Y,Z Vertex 2 {m}
  17, 3, 0,                               !- X,Y,Z Vertex 3 {m}
  17, 3, 4;                               !- X,Y,Z Vertex 4 {m}

OS:Surface,
  {e055981a-3880-4f76-b49b-679289591ab9}, !- Handle
  Surface 10,                             !- Name
  Wall,                                   !- Surface Type
  ,                                       !- Construction Name
  {95593524-d91a-47ea-b4e0-b336811f6365}, !- Space Name
  Surface,                                !- Outside Boundary Condition
  {dca68f34-da5c-419c-ae1d-254bba87d8a6}, !- Outside Boundary Condition Object
  NoSun,                                  !- Sun Exposure
  NoWind,                                 !- Wind Exposure
  ,                                       !- View Factor to Ground
  ,                                       !- Number of Vertices
  0, 0, 4,                                !- X,Y,Z Vertex 1 {m}
  0, 0, 0,                                !- X,Y,Z Vertex 2 {m}
  14, 0, 0,                               !- X,Y,Z Vertex 3 {m}
  14, 0, 4;                               !- X,Y,Z Vertex 4 {m}

OS:Surface,
  {f9bbccb4-70e1-4920-aa6d-152c703b91f6}, !- Handle
  Surface 11,                             !- Name
  Wall,                                   !- Surface Type
  ,                                       !- Construction Name
  {95593524-d91a-47ea-b4e0-b336811f6365}, !- Space Name
  Surface,                                !- Outside Boundary Condition
  {5deddcef-3d3b-43a5-ac87-349febd7008e}, !- Outside Boundary Condition Object
  NoSun,                                  !- Sun Exposure
  NoWind,                                 !- Wind Exposure
  ,                                       !- View Factor to Ground
  ,                                       !- Number of Vertices
  -3, 3, 4,                               !- X,Y,Z Vertex 1 {m}
  -3, 3, 0,                               !- X,Y,Z Vertex 2 {m}
  0, 0, 0,                                !- X,Y,Z Vertex 3 {m}
  0, 0, 4;                                !- X,Y,Z Vertex 4 {m}

OS:Surface,
  {26e6348e-c2ba-4937-bf75-12986c9778da}, !- Handle
  Surface 12,                             !- Name
  RoofCeiling,                            !- Surface Type
  ,                                       !- Construction Name
  {95593524-d91a-47ea-b4e0-b336811f6365}, !- Space Name
  Surface,                                !- Outside Boundary Condition
  {fa05c34e-0f75-451a-a140-b2722be0748e}, !- Outside Boundary Condition Object
  NoSun,                                  !- Sun Exposure
  NoWind,                                 !- Wind Exposure
  ,                                       !- View Factor to Ground
  ,                                       !- Number of Vertices
  0, 0, 4,                                !- X,Y,Z Vertex 1 {m}
  14, 0, 4,                               !- X,Y,Z Vertex 2 {m}
  17, 3, 4,                               !- X,Y,Z Vertex 3 {m}
  -3, 3, 4;                               !- X,Y,Z Vertex 4 {m}

OS:Space,
  {7b8d143e-383f-4bb3-be59-7ddc77298e49}, !- Handle
  Story 1 East Perimeter Space,           !- Name
  ,                                       !- Space Type Name
  ,                                       !- Default Construction Set Name
  ,                                       !- Default Schedule Set Name
  -0,                                     !- Direction of Relative North {deg}
  17,                                     !- X Origin {m}
  3,                                      !- Y Origin {m}
  0,                                      !- Z Origin {m}
  {0b1a40f8-272c-48a3-bcb4-73dc12c0842a}, !- Building Story Name
  {0b91cee3-91e7-4610-9b5e-901bfdfd6cd9}; !- Thermal Zone Name

OS:Surface,
  {ee0fa0aa-0436-4994-9b30-6d8cc111215b}, !- Handle
  Surface 13,                             !- Name
  Floor,                                  !- Surface Type
  ,                                       !- Construction Name
  {7b8d143e-383f-4bb3-be59-7ddc77298e49}, !- Space Name
  Ground,                                 !- Outside Boundary Condition
  ,                                       !- Outside Boundary Condition Object
  NoSun,                                  !- Sun Exposure
  NoWind,                                 !- Wind Exposure
  ,                                       !- View Factor to Ground
  ,                                       !- Number of Vertices
  3, 17, 0,                               !- X,Y,Z Vertex 1 {m}
  3, -3, 0,                               !- X,Y,Z Vertex 2 {m}
  0, 0, 0,                                !- X,Y,Z Vertex 3 {m}
  0, 14, 0;                               !- X,Y,Z Vertex 4 {m}

OS:Surface,
  {8d94574c-fa41-46c0-a72b-be3bc7370da9}, !- Handle
  Surface 14,                             !- Name
  Wall,                                   !- Surface Type
  ,                                       !- Construction Name
  {7b8d143e-383f-4bb3-be59-7ddc77298e49}, !- Space Name
  Outdoors,                               !- Outside Boundary Condition
  ,                                       !- Outside Boundary Condition Object
  SunExposed,                             !- Sun Exposure
  WindExposed,                            !- Wind Exposure
  ,                                       !- View Factor to Ground
  ,                                       !- Number of Vertices
  3, -3, 4,                               !- X,Y,Z Vertex 1 {m}
  3, -3, 0,                               !- X,Y,Z Vertex 2 {m}
  3, 17, 0,                               !- X,Y,Z Vertex 3 {m}
  3, 17, 4;                               !- X,Y,Z Vertex 4 {m}

OS:Surface,
  {66f1671f-c87c-4960-a239-c2d2e8108aa9}, !- Handle
  Surface 15,                             !- Name
  Wall,                                   !- Surface Type
  ,                                       !- Construction Name
  {7b8d143e-383f-4bb3-be59-7ddc77298e49}, !- Space Name
  Surface,                                !- Outside Boundary Condition
  {be5ecb5b-c511-4376-a857-08c288837ce9}, !- Outside Boundary Condition Object
  NoSun,                                  !- Sun Exposure
  NoWind,                                 !- Wind Exposure
  ,                                       !- View Factor to Ground
  ,                                       !- Number of Vertices
  0, 0, 4,                                !- X,Y,Z Vertex 1 {m}
  0, 0, 0,                                !- X,Y,Z Vertex 2 {m}
  3, -3, 0,                               !- X,Y,Z Vertex 3 {m}
  3, -3, 4;                               !- X,Y,Z Vertex 4 {m}

OS:Surface,
  {19a21e3f-df10-413d-bf4b-6f4ed205696b}, !- Handle
  Surface 16,                             !- Name
  Wall,                                   !- Surface Type
  ,                                       !- Construction Name
  {7b8d143e-383f-4bb3-be59-7ddc77298e49}, !- Space Name
  Surface,                                !- Outside Boundary Condition
  {f19ff1a4-fff7-4054-8fe1-e9f9582ec525}, !- Outside Boundary Condition Object
  NoSun,                                  !- Sun Exposure
  NoWind,                                 !- Wind Exposure
  ,                                       !- View Factor to Ground
  ,                                       !- Number of Vertices
  0, 14, 4,                               !- X,Y,Z Vertex 1 {m}
  0, 14, 0,                               !- X,Y,Z Vertex 2 {m}
  0, 0, 0,                                !- X,Y,Z Vertex 3 {m}
  0, 0, 4;                                !- X,Y,Z Vertex 4 {m}

OS:Surface,
  {2856fda7-6b62-457b-9269-37373b2cf286}, !- Handle
  Surface 17,                             !- Name
  Wall,                                   !- Surface Type
  ,                                       !- Construction Name
  {7b8d143e-383f-4bb3-be59-7ddc77298e49}, !- Space Name
  Surface,                                !- Outside Boundary Condition
  {41b80f7a-052d-4f2e-9e43-48548e9cb349}, !- Outside Boundary Condition Object
  NoSun,                                  !- Sun Exposure
  NoWind,                                 !- Wind Exposure
  ,                                       !- View Factor to Ground
  ,                                       !- Number of Vertices
  3, 17, 4,                               !- X,Y,Z Vertex 1 {m}
  3, 17, 0,                               !- X,Y,Z Vertex 2 {m}
  0, 14, 0,                               !- X,Y,Z Vertex 3 {m}
  0, 14, 4;                               !- X,Y,Z Vertex 4 {m}

OS:Surface,
  {9bedeb26-4dae-47c2-a215-d5db972a7cc4}, !- Handle
  Surface 18,                             !- Name
  RoofCeiling,                            !- Surface Type
  ,                                       !- Construction Name
  {7b8d143e-383f-4bb3-be59-7ddc77298e49}, !- Space Name
  Surface,                                !- Outside Boundary Condition
  {1ac412d3-b084-484c-9e98-7d3a27c4e975}, !- Outside Boundary Condition Object
  NoSun,                                  !- Sun Exposure
  NoWind,                                 !- Wind Exposure
  ,                                       !- View Factor to Ground
  ,                                       !- Number of Vertices
  0, 14, 4,                               !- X,Y,Z Vertex 1 {m}
  0, 0, 4,                                !- X,Y,Z Vertex 2 {m}
  3, -3, 4,                               !- X,Y,Z Vertex 3 {m}
  3, 17, 4;                               !- X,Y,Z Vertex 4 {m}

OS:Space,
  {5a461498-a81f-47f6-bfaf-4f83d320d569}, !- Handle
  Story 1 South Perimeter Space,          !- Name
  ,                                       !- Space Type Name
  ,                                       !- Default Construction Set Name
  ,                                       !- Default Schedule Set Name
  -0,                                     !- Direction of Relative North {deg}
  0,                                      !- X Origin {m}
  0,                                      !- Y Origin {m}
  0,                                      !- Z Origin {m}
  {0b1a40f8-272c-48a3-bcb4-73dc12c0842a}, !- Building Story Name
  {50542505-69b8-4c7a-86c7-de41a96c698c}; !- Thermal Zone Name

OS:Surface,
  {d36abd31-473f-4fd8-a5f2-4ca05e14cd70}, !- Handle
  Surface 19,                             !- Name
  Floor,                                  !- Surface Type
  ,                                       !- Construction Name
  {5a461498-a81f-47f6-bfaf-4f83d320d569}, !- Space Name
  Ground,                                 !- Outside Boundary Condition
  ,                                       !- Outside Boundary Condition Object
  NoSun,                                  !- Sun Exposure
  NoWind,                                 !- Wind Exposure
  ,                                       !- View Factor to Ground
  ,                                       !- Number of Vertices
  20, 0, 0,                               !- X,Y,Z Vertex 1 {m}
  0, 0, 0,                                !- X,Y,Z Vertex 2 {m}
  3, 3, 0,                                !- X,Y,Z Vertex 3 {m}
  17, 3, 0;                               !- X,Y,Z Vertex 4 {m}

OS:Surface,
  {abe02987-2d71-477d-abff-2a3a1ab3494f}, !- Handle
  Surface 20,                             !- Name
  Wall,                                   !- Surface Type
  ,                                       !- Construction Name
  {5a461498-a81f-47f6-bfaf-4f83d320d569}, !- Space Name
  Outdoors,                               !- Outside Boundary Condition
  ,                                       !- Outside Boundary Condition Object
  SunExposed,                             !- Sun Exposure
  WindExposed,                            !- Wind Exposure
  ,                                       !- View Factor to Ground
  ,                                       !- Number of Vertices
  0, 0, 4,                                !- X,Y,Z Vertex 1 {m}
  0, 0, 0,                                !- X,Y,Z Vertex 2 {m}
  20, 0, 0,                               !- X,Y,Z Vertex 3 {m}
  20, 0, 4;                               !- X,Y,Z Vertex 4 {m}

OS:Surface,
  {35ac404e-cc18-4ba1-bec5-2bb4eec149f5}, !- Handle
  Surface 21,                             !- Name
  Wall,                                   !- Surface Type
  ,                                       !- Construction Name
  {5a461498-a81f-47f6-bfaf-4f83d320d569}, !- Space Name
  Surface,                                !- Outside Boundary Condition
  {7f07c33b-d0b2-44d4-a440-3ec9ba941290}, !- Outside Boundary Condition Object
  NoSun,                                  !- Sun Exposure
  NoWind,                                 !- Wind Exposure
  ,                                       !- View Factor to Ground
  ,                                       !- Number of Vertices
  3, 3, 4,                                !- X,Y,Z Vertex 1 {m}
  3, 3, 0,                                !- X,Y,Z Vertex 2 {m}
  0, 0, 0,                                !- X,Y,Z Vertex 3 {m}
  0, 0, 4;                                !- X,Y,Z Vertex 4 {m}

OS:Surface,
  {bdec13e2-9597-4bb0-8c13-e5ffb92e3f8e}, !- Handle
  Surface 22,                             !- Name
  Wall,                                   !- Surface Type
  ,                                       !- Construction Name
  {5a461498-a81f-47f6-bfaf-4f83d320d569}, !- Space Name
  Surface,                                !- Outside Boundary Condition
  {b5934871-fb12-4211-9e38-2a906ea64bcd}, !- Outside Boundary Condition Object
  NoSun,                                  !- Sun Exposure
  NoWind,                                 !- Wind Exposure
  ,                                       !- View Factor to Ground
  ,                                       !- Number of Vertices
  17, 3, 4,                               !- X,Y,Z Vertex 1 {m}
  17, 3, 0,                               !- X,Y,Z Vertex 2 {m}
  3, 3, 0,                                !- X,Y,Z Vertex 3 {m}
  3, 3, 4;                                !- X,Y,Z Vertex 4 {m}

OS:Surface,
  {be5ecb5b-c511-4376-a857-08c288837ce9}, !- Handle
  Surface 23,                             !- Name
  Wall,                                   !- Surface Type
  ,                                       !- Construction Name
  {5a461498-a81f-47f6-bfaf-4f83d320d569}, !- Space Name
  Surface,                                !- Outside Boundary Condition
  {66f1671f-c87c-4960-a239-c2d2e8108aa9}, !- Outside Boundary Condition Object
  NoSun,                                  !- Sun Exposure
  NoWind,                                 !- Wind Exposure
  ,                                       !- View Factor to Ground
  ,                                       !- Number of Vertices
  20, 0, 4,                               !- X,Y,Z Vertex 1 {m}
  20, 0, 0,                               !- X,Y,Z Vertex 2 {m}
  17, 3, 0,                               !- X,Y,Z Vertex 3 {m}
  17, 3, 4;                               !- X,Y,Z Vertex 4 {m}

OS:Surface,
  {c1788172-9cff-4b29-a55d-35b1e206f17d}, !- Handle
  Surface 24,                             !- Name
  RoofCeiling,                            !- Surface Type
  ,                                       !- Construction Name
  {5a461498-a81f-47f6-bfaf-4f83d320d569}, !- Space Name
  Surface,                                !- Outside Boundary Condition
  {d945ef9d-c676-4ff5-b224-5a666dd8cef8}, !- Outside Boundary Condition Object
  NoSun,                                  !- Sun Exposure
  NoWind,                                 !- Wind Exposure
  ,                                       !- View Factor to Ground
  ,                                       !- Number of Vertices
  17, 3, 4,                               !- X,Y,Z Vertex 1 {m}
  3, 3, 4,                                !- X,Y,Z Vertex 2 {m}
  0, 0, 4,                                !- X,Y,Z Vertex 3 {m}
  20, 0, 4;                               !- X,Y,Z Vertex 4 {m}

OS:Space,
  {a80fd32e-4a85-4742-9a61-c4628959b7db}, !- Handle
  Story 1 Core Space,                     !- Name
  ,                                       !- Space Type Name
  ,                                       !- Default Construction Set Name
  ,                                       !- Default Schedule Set Name
  -0,                                     !- Direction of Relative North {deg}
  3,                                      !- X Origin {m}
  3,                                      !- Y Origin {m}
  0,                                      !- Z Origin {m}
  {0b1a40f8-272c-48a3-bcb4-73dc12c0842a}, !- Building Story Name
  {8fe5fdab-5c37-44ea-9d0a-e311c8de04aa}; !- Thermal Zone Name

OS:Surface,
  {7b486d94-43d9-4399-90a9-d9fbeef6db89}, !- Handle
  Surface 25,                             !- Name
  Floor,                                  !- Surface Type
  ,                                       !- Construction Name
  {a80fd32e-4a85-4742-9a61-c4628959b7db}, !- Space Name
  Ground,                                 !- Outside Boundary Condition
  ,                                       !- Outside Boundary Condition Object
  NoSun,                                  !- Sun Exposure
  NoWind,                                 !- Wind Exposure
  ,                                       !- View Factor to Ground
  ,                                       !- Number of Vertices
  0, 0, 0,                                !- X,Y,Z Vertex 1 {m}
  0, 14, 0,                               !- X,Y,Z Vertex 2 {m}
  14, 14, 0,                              !- X,Y,Z Vertex 3 {m}
  14, 0, 0;                               !- X,Y,Z Vertex 4 {m}

OS:Surface,
  {6ce228b3-24cf-4bf1-94ed-2db6a5f284a3}, !- Handle
  Surface 26,                             !- Name
  Wall,                                   !- Surface Type
  ,                                       !- Construction Name
  {a80fd32e-4a85-4742-9a61-c4628959b7db}, !- Space Name
  Surface,                                !- Outside Boundary Condition
  {80063402-c963-4151-ad66-5d39e291f139}, !- Outside Boundary Condition Object
  NoSun,                                  !- Sun Exposure
  NoWind,                                 !- Wind Exposure
  ,                                       !- View Factor to Ground
  ,                                       !- Number of Vertices
  0, 14, 4,                               !- X,Y,Z Vertex 1 {m}
  0, 14, 0,                               !- X,Y,Z Vertex 2 {m}
  0, 0, 0,                                !- X,Y,Z Vertex 3 {m}
  0, 0, 4;                                !- X,Y,Z Vertex 4 {m}

OS:Surface,
  {dca68f34-da5c-419c-ae1d-254bba87d8a6}, !- Handle
  Surface 27,                             !- Name
  Wall,                                   !- Surface Type
  ,                                       !- Construction Name
  {a80fd32e-4a85-4742-9a61-c4628959b7db}, !- Space Name
  Surface,                                !- Outside Boundary Condition
  {e055981a-3880-4f76-b49b-679289591ab9}, !- Outside Boundary Condition Object
  NoSun,                                  !- Sun Exposure
  NoWind,                                 !- Wind Exposure
  ,                                       !- View Factor to Ground
  ,                                       !- Number of Vertices
  14, 14, 4,                              !- X,Y,Z Vertex 1 {m}
  14, 14, 0,                              !- X,Y,Z Vertex 2 {m}
  0, 14, 0,                               !- X,Y,Z Vertex 3 {m}
  0, 14, 4;                               !- X,Y,Z Vertex 4 {m}

OS:Surface,
  {f19ff1a4-fff7-4054-8fe1-e9f9582ec525}, !- Handle
  Surface 28,                             !- Name
  Wall,                                   !- Surface Type
  ,                                       !- Construction Name
  {a80fd32e-4a85-4742-9a61-c4628959b7db}, !- Space Name