
OS:Version,
  {ccf48005-6f7c-48dd-904b-80e45b7e0c33}, !- Handle
  0.10.0;                                 !- Version Identifier

OS:BuildingStory,
  {26f6183f-14cd-4e3b-9c4f-33a252edb98c}, !- Handle
  Story 1,                                !- Name
  0,                                      !- Nominal Z Coordinate {m}
  4,                                      !- Nominal Floor to Floor Height {m}
  ,                                       !- Default Construction Set Name
  ,                                       !- Default Schedule Set Name
  ;                                       !- Group Rendering Name

OS:Space,
  {7ffab52a-5537-459e-800d-c3abfd1d48fd}, !- Handle
  Story 1 West Perimeter Space,           !- Name
  ,                                       !- Space Type Name
  ,                                       !- Default Construction Set Name
  ,                                       !- Default Schedule Set Name
  -0,                                     !- Direction of Relative North {deg}
  0,                                      !- X Origin {m}
  0,                                      !- Y Origin {m}
  0,                                      !- Z Origin {m}
  {26f6183f-14cd-4e3b-9c4f-33a252edb98c}, !- Building Story Name
  {19a3f78e-5789-4a0c-af9c-c9c60778d19f}; !- Thermal Zone Name

OS:Surface,
  {160385d0-1c06-4a79-9606-d7c524830264}, !- Handle
  Surface 1,                              !- Name
  Floor,                                  !- Surface Type
  ,                                       !- Construction Name
  {7ffab52a-5537-459e-800d-c3abfd1d48fd}, !- Space Name
  Ground,                                 !- Outside Boundary Condition
  ,                                       !- Outside Boundary Condition Object
  NoSun,                                  !- Sun Exposure
  NoWind,                                 !- Wind Exposure
  ,                                       !- View Factor to Ground
  ,                                       !- Number of Vertices
  0, 0, 0,                                !- X,Y,Z Vertex 1 {m}
  0, 21.3541565040626, 0,                 !- X,Y,Z Vertex 2 {m}
  3, 18.3541565040626, 0,                 !- X,Y,Z Vertex 3 {m}
  3, 3, 0;                                !- X,Y,Z Vertex 4 {m}

OS:Surface,
  {7acc9257-46e0-44b4-b970-d9e1ea4475a2}, !- Handle
  Surface 2,                              !- Name
  Wall,                                   !- Surface Type
  ,                                       !- Construction Name
  {7ffab52a-5537-459e-800d-c3abfd1d48fd}, !- Space Name
  Outdoors,                               !- Outside Boundary Condition
  ,                                       !- Outside Boundary Condition Object
  SunExposed,                             !- Sun Exposure
  WindExposed,                            !- Wind Exposure
  ,                                       !- View Factor to Ground
  ,                                       !- Number of Vertices
  0, 21.3541565040626, 4,                 !- X,Y,Z Vertex 1 {m}
  0, 21.3541565040626, 0,                 !- X,Y,Z Vertex 2 {m}
  0, 0, 0,                                !- X,Y,Z Vertex 3 {m}
  0, 0, 4;                                !- X,Y,Z Vertex 4 {m}

OS:Surface,
  {b93f8370-9e77-4f61-bbbf-0e40fcecc662}, !- Handle
  Surface 3,                              !- Name
  Wall,                                   !- Surface Type
  ,                                       !- Construction Name
  {7ffab52a-5537-459e-800d-c3abfd1d48fd}, !- Space Name
  Surface,                                !- Outside Boundary Condition
  {930ff864-8a87-48cf-b867-e4021489f8a8}, !- Outside Boundary Condition Object
  NoSun,                                  !- Sun Exposure
  NoWind,                                 !- Wind Exposure
  ,                                       !- View Factor to Ground
  ,                                       !- Number of Vertices
  3, 18.3541565040626, 4,                 !- X,Y,Z Vertex 1 {m}
  3, 18.3541565040626, 0,                 !- X,Y,Z Vertex 2 {m}
  0, 21.3541565040626, 0,                 !- X,Y,Z Vertex 3 {m}
  0, 21.3541565040626, 4;                 !- X,Y,Z Vertex 4 {m}

OS:Surface,
  {fa2baf14-995b-4552-834e-303ba4ecb159}, !- Handle
  Surface 4,                              !- Name
  Wall,                                   !- Surface Type
  ,                                       !- Construction Name
  {7ffab52a-5537-459e-800d-c3abfd1d48fd}, !- Space Name
  Surface,                                !- Outside Boundary Condition
  {ef78398e-21ba-47f7-a75e-62f6720f42b3}, !- Outside Boundary Condition Object
  NoSun,                                  !- Sun Exposure
  NoWind,                                 !- Wind Exposure
  ,                                       !- View Factor to Ground
  ,                                       !- Number of Vertices
  3, 3, 4,                                !- X,Y,Z Vertex 1 {m}
  3, 3, 0,                                !- X,Y,Z Vertex 2 {m}
  3, 18.3541565040626, 0,                 !- X,Y,Z Vertex 3 {m}
  3, 18.3541565040626, 4;                 !- X,Y,Z Vertex 4 {m}

OS:Surface,
  {94cfc3c0-e863-48f2-9543-77440ef6acf7}, !- Handle
  Surface 5,                              !- Name
  Wall,                                   !- Surface Type
  ,                                       !- Construction Name
  {7ffab52a-5537-459e-800d-c3abfd1d48fd}, !- Space Name
  Surface,                                !- Outside Boundary Condition
  {ed2a2e8e-4447-4a28-8ca4-5fecbfd000cb}, !- Outside Boundary Condition Object
  NoSun,                                  !- Sun Exposure
  NoWind,                                 !- Wind Exposure
  ,                                       !- View Factor to Ground
  ,                                       !- Number of Vertices
  0, 0, 4,                                !- X,Y,Z Vertex 1 {m}
  0, 0, 0,                                !- X,Y,Z Vertex 2 {m}
  3, 3, 0,                                !- X,Y,Z Vertex 3 {m}
  3, 3, 4;                                !- X,Y,Z Vertex 4 {m}

OS:Surface,
  {8932b165-de2a-4bb4-b425-4acd7adb318d}, !- Handle
  Surface 6,                              !- Name
  RoofCeiling,                            !- Surface Type
  ,                                       !- Construction Name
  {7ffab52a-5537-459e-800d-c3abfd1d48fd}, !- Space Name
  Outdoors,                               !- Outside Boundary Condition
  ,                                       !- Outside Boundary Condition Object
  SunExposed,                             !- Sun Exposure
  WindExposed,                            !- Wind Exposure
  ,                                       !- View Factor to Ground
  ,                                       !- Number of Vertices
  3, 3, 4,                                !- X,Y,Z Vertex 1 {m}
  3, 18.3541565040626, 4,                 !- X,Y,Z Vertex 2 {m}
  0, 21.3541565040626, 4,                 !- X,Y,Z Vertex 3 {m}
  0, 0, 4;                                !- X,Y,Z Vertex 4 {m}

OS:Space,
  {02193797-d1b3-49a2-bacb-463d10c98605}, !- Handle
  Story 1 North Perimeter Space,          !- Name
  ,                                       !- Space Type Name
  ,                                       !- Default Construction Set Name
  ,                                       !- Default Schedule Set Name
  -0,                                     !- Direction of Relative North {deg}
  3,                                      !- X Origin {m}
  18.3541565040626,                       !- Y Origin {m}
  0,                                      !- Z Origin {m}
  {26f6183f-14cd-4e3b-9c4f-33a252edb98c}, !- Building Story Name
  {1af643e0-ad81-448f-9b77-890aeccc4867}; !- Thermal Zone Name

OS:Surface,
  {3fb499b4-d934-40ab-8400-0bd454d9825f}, !- Handle
  Surface 7,                              !- Name
  Floor,                                  !- Surface Type
  ,                                       !- Construction Name
  {02193797-d1b3-49a2-bacb-463d10c98605}, !- Space Name
  Ground,                                 !- Outside Boundary Condition
  ,                                       !- Outside Boundary Condition Object
  NoSun,                                  !- Sun Exposure
  NoWind,                                 !- Wind Exposure
  ,                                       !- View Factor to Ground
  ,                                       !- Number of Vertices
  -3, 2.99999999999998, 0,                !- X,Y,Z Vertex 1 {m}
  18.3541565040626, 2.99999999999998, 0,  !- X,Y,Z Vertex 2 {m}
  15.3541565040626, -2.1316282072803e-14, 0, !- X,Y,Z Vertex 3 {m}
  0, -2.1316282072803e-14, 0;             !- X,Y,Z Vertex 4 {m}

OS:Surface,
  {6c2dacfd-e371-4864-85ba-457eaaef48c2}, !- Handle
  Surface 8,                              !- Name
  Wall,                                   !- Surface Type
  ,                                       !- Construction Name
  {02193797-d1b3-49a2-bacb-463d10c98605}, !- Space Name
  Outdoors,                               !- Outside Boundary Condition
  ,                                       !- Outside Boundary Condition Object
  SunExposed,                             !- Sun Exposure
  WindExposed,                            !- Wind Exposure
  ,                                       !- View Factor to Ground
  ,                                       !- Number of Vertices
  18.3541565040626, 2.99999999999998, 4,  !- X,Y,Z Vertex 1 {m}
  18.3541565040626, 2.99999999999998, 0,  !- X,Y,Z Vertex 2 {m}
  -3, 2.99999999999998, 0,                !- X,Y,Z Vertex 3 {m}
  -3, 2.99999999999998, 4;                !- X,Y,Z Vertex 4 {m}

OS:Surface,
  {a9ab06aa-99c8-4f2f-8099-543722e72511}, !- Handle
  Surface 9,                              !- Name
  Wall,                                   !- Surface Type
  ,                                       !- Construction Name
  {02193797-d1b3-49a2-bacb-463d10c98605}, !- Space Name
  Surface,                                !- Outside Boundary Condition
  {0e735eef-a301-4397-ba8d-d641b2e8a34a}, !- Outside Boundary Condition Object
  NoSun,                                  !- Sun Exposure
  NoWind,                                 !- Wind Exposure
  ,                                       !- View Factor to Ground
  ,                                       !- Number of Vertices
  15.3541565040626, -2.1316282072803e-14, 4, !- X,Y,Z Vertex 1 {m}
  15.3541565040626, -2.1316282072803e-14, 0, !- X,Y,Z Vertex 2 {m}
  18.3541565040626, 2.99999999999998, 0,  !- X,Y,Z Vertex 3 {m}
  18.3541565040626, 2.99999999999998, 4;  !- X,Y,Z Vertex 4 {m}

OS:Surface,
  {269b6171-6e84-46a5-abb4-733375fecd9d}, !- Handle
  Surface 10,                             !- Name
  Wall,                                   !- Surface Type
  ,                                       !- Construction Name
  {02193797-d1b3-49a2-bacb-463d10c98605}, !- Space Name
  Surface,                                !- Outside Boundary Condition
  {f5e25e1d-6717-4bc2-b7bf-0bfe179ce7bb}, !- Outside Boundary Condition Object
  NoSun,                                  !- Sun Exposure
  NoWind,                                 !- Wind Exposure
  ,                                       !- View Factor to Ground
  ,                                       !- Number of Vertices
  0, -2.1316282072803e-14, 4,             !- X,Y,Z Vertex 1 {m}
  0, -2.1316282072803e-14, 0,             !- X,Y,Z Vertex 2 {m}
  15.3541565040626, -2.1316282072803e-14, 0, !- X,Y,Z Vertex 3 {m}
  15.3541565040626, -2.1316282072803e-14, 4; !- X,Y,Z Vertex 4 {m}

OS:Surface,
  {930ff864-8a87-48cf-b867-e4021489f8a8}, !- Handle
  Surface 11,                             !- Name
  Wall,                                   !- Surface Type
  ,                                       !- Construction Name
  {02193797-d1b3-49a2-bacb-463d10c98605}, !- Space Name
  Surface,                                !- Outside Boundary Condition
  {b93f8370-9e77-4f61-bbbf-0e40fcecc662}, !- Outside Boundary Condition Object
  NoSun,                                  !- Sun Exposure
  NoWind,                                 !- Wind Exposure
  ,                                       !- View Factor to Ground
  ,                                       !- Number of Vertices
  -3, 2.99999999999998, 4,                !- X,Y,Z Vertex 1 {m}
  -3, 2.99999999999998, 0,                !- X,Y,Z Vertex 2 {m}
  0, -2.1316282072803e-14, 0,             !- X,Y,Z Vertex 3 {m}
  0, -2.1316282072803e-14, 4;             !- X,Y,Z Vertex 4 {m}

OS:Surface,
  {39257b53-958a-419e-8870-f0b8b77be497}, !- Handle
  Surface 12,                             !- Name
  RoofCeiling,                            !- Surface Type
  ,                                       !- Construction Name
  {02193797-d1b3-49a2-bacb-463d10c98605}, !- Space Name
  Outdoors,                               !- Outside Boundary Condition
  ,                                       !- Outside Boundary Condition Object
  SunExposed,                             !- Sun Exposure
  WindExposed,                            !- Wind Exposure
  ,                                       !- View Factor to Ground
  ,                                       !- Number of Vertices
  0, -2.1316282072803e-14, 4,             !- X,Y,Z Vertex 1 {m}
  15.3541565040626, -2.1316282072803e-14, 4, !- X,Y,Z Vertex 2 {m}
  18.3541565040626, 2.99999999999998, 4,  !- X,Y,Z Vertex 3 {m}
  -3, 2.99999999999998, 4;                !- X,Y,Z Vertex 4 {m}

OS:Space,
  {726a62bf-1926-4fb6-a9c7-3914fc4478f4}, !- Handle
  Story 1 East Perimeter Space,           !- Name
  ,                                       !- Space Type Name
  ,                                       !- Default Construction Set Name
  ,                                       !- Default Schedule Set Name
  -0,                                     !- Direction of Relative North {deg}
  18.3541565040626,                       !- X Origin {m}
  3,                                      !- Y Origin {m}
  0,                                      !- Z Origin {m}
  {26f6183f-14cd-4e3b-9c4f-33a252edb98c}, !- Building Story Name
  {d2f64b74-ffbb-4698-8ccc-a8e80af7b53d}; !- Thermal Zone Name

OS:Surface,
  {a15d4bcf-1eb4-480f-b7d1-67d1573b3e25}, !- Handle
  Surface 13,                             !- Name
  Floor,                                  !- Surface Type
  ,                                       !- Construction Name
  {726a62bf-1926-4fb6-a9c7-3914fc4478f4}, !- Space Name
  Ground,                                 !- Outside Boundary Condition
  ,                                       !- Outside Boundary Condition Object
  NoSun,                                  !- Sun Exposure
  NoWind,                                 !- Wind Exposure
  ,                                       !- View Factor to Ground
  ,                                       !- Number of Vertices
  2.99999999999998, 18.3541565040626, 0,  !- X,Y,Z Vertex 1 {m}
  2.99999999999998, -3, 0,                !- X,Y,Z Vertex 2 {m}
  -2.1316282072803e-14, 0, 0,             !- X,Y,Z Vertex 3 {m}
  -2.1316282072803e-14, 15.3541565040626, 0; !- X,Y,Z Vertex 4 {m}

OS:Surface,
  {25ddf840-7e07-4aee-8f2e-d55cc4f33adf}, !- Handle
  Surface 14,                             !- Name
  Wall,                                   !- Surface Type
  ,                                       !- Construction Name
  {726a62bf-1926-4fb6-a9c7-3914fc4478f4}, !- Space Name
  Outdoors,                               !- Outside Boundary Condition
  ,                                       !- Outside Boundary Condition Object
  SunExposed,                             !- Sun Exposure
  WindExposed,                            !- Wind Exposure
  ,                                       !- View Factor to Ground
  ,                                       !- Number of Vertices
  2.99999999999998, -3, 4,                !- X,Y,Z Vertex 1 {m}
  2.99999999999998, -3, 0,                !- X,Y,Z Vertex 2 {m}
  2.99999999999998, 18.3541565040626, 0,  !- X,Y,Z Vertex 3 {m}
  2.99999999999998, 18.3541565040626, 4;  !- X,Y,Z Vertex 4 {m}

OS:Surface,
  {5287b92a-e538-48a4-973f-df8d4698c8bf}, !- Handle
  Surface 15,                             !- Name
  Wall,                                   !- Surface Type
  ,                                       !- Construction Name
  {726a62bf-1926-4fb6-a9c7-3914fc4478f4}, !- Space Name
  Surface,                                !- Outside Boundary Condition
  {187f229d-577d-4b59-a7f3-cec3de397fe5}, !- Outside Boundary Condition Object
  NoSun,                                  !- Sun Exposure
  NoWind,                                 !- Wind Exposure
  ,                                       !- View Factor to Ground
  ,                                       !- Number of Vertices
  -2.1316282072803e-14, 0, 4,             !- X,Y,Z Vertex 1 {m}
  -2.1316282072803e-14, 0, 0,             !- X,Y,Z Vertex 2 {m}
  2.99999999999998, -3, 0,                !- X,Y,Z Vertex 3 {m}
  2.99999999999998, -3, 4;                !- X,Y,Z Vertex 4 {m}

OS:Surface,
  {6cbbc3e1-dfb3-4021-a085-457c11daaca4}, !- Handle
  Surface 16,                             !- Name
  Wall,                                   !- Surface Type
  ,                                       !- Construction Name
  {726a62bf-1926-4fb6-a9c7-3914fc4478f4}, !- Space Name
  Surface,                                !- Outside Boundary Condition
  {9df3e0c1-6ffc-4cfd-9786-c29ee531fb2e}, !- Outside Boundary Condition Object
  NoSun,                                  !- Sun Exposure
  NoWind,                                 !- Wind Exposure
  ,                                       !- View Factor to Ground
  ,                                       !- Number of Vertices
  -2.1316282072803e-14, 15.3541565040626, 4, !- X,Y,Z Vertex 1 {m}
  -2.1316282072803e-14, 15.3541565040626, 0, !- X,Y,Z Vertex 2 {m}
  -2.1316282072803e-14, 0, 0,             !- X,Y,Z Vertex 3 {m}
  -2.1316282072803e-14, 0, 4;             !- X,Y,Z Vertex 4 {m}

OS:Surface,
  {0e735eef-a301-4397-ba8d-d641b2e8a34a}, !- Handle
  Surface 17,                             !- Name
  Wall,                                   !- Surface Type
  ,                                       !- Construction Name
  {726a62bf-1926-4fb6-a9c7-3914fc4478f4}, !- Space Name
  Surface,                                !- Outside Boundary Condition
  {a9ab06aa-99c8-4f2f-8099-543722e72511}, !- Outside Boundary Condition Object
  NoSun,                                  !- Sun Exposure
  NoWind,                                 !- Wind Exposure
  ,                                       !- View Factor to Ground
  ,                                       !- Number of Vertices
  2.99999999999998, 18.3541565040626, 4,  !- X,Y,Z Vertex 1 {m}
  2.99999999999998, 18.3541565040626, 0,  !- X,Y,Z Vertex 2 {m}
  -2.1316282072803e-14, 15.3541565040626, 0, !- X,Y,Z Vertex 3 {m}
  -2.1316282072803e-14, 15.3541565040626, 4; !- X,Y,Z Vertex 4 {m}

OS:Surface,
  {f28d10c4-b177-47be-bfaf-c7a4196748f7}, !- Handle
  Surface 18,                             !- Name
  RoofCeiling,                            !- Surface Type
  ,                                       !- Construction Name
  {726a62bf-1926-4fb6-a9c7-3914fc4478f4}, !- Space Name
  Outdoors,                               !- Outside Boundary Condition
  ,                                       !- Outside Boundary Condition Object
  SunExposed,                             !- Sun Exposure
  WindExposed,                            !- Wind Exposure
  ,                                       !- View Factor to Ground
  ,                                       !- Number of Vertices
  -2.1316282072803e-14, 15.3541565040626, 4, !- X,Y,Z Vertex 1 {m}
  -2.1316282072803e-14, 0, 4,             !- X,Y,Z Vertex 2 {m}
  2.99999999999998, -3, 4,                !- X,Y,Z Vertex 3 {m}
  2.99999999999998, 18.3541565040626, 4;  !- X,Y,Z Vertex 4 {m}

OS:Space,
  {0e4e4326-1536-47f4-ae4f-8f6af799ea75}, !- Handle
  Story 1 South Perimeter Space,          !- Name
  ,                                       !- Space Type Name
  ,                                       !- Default Construction Set Name
  ,                                       !- Default Schedule Set Name
  -0,                                     !- Direction of Relative North {deg}
  0,                                      !- X Origin {m}
  0,                                      !- Y Origin {m}
  0,                                      !- Z Origin {m}
  {26f6183f-14cd-4e3b-9c4f-33a252edb98c}, !- Building Story Name
  {4b178cce-fb64-46a8-8f63-fd2db5fd7c0b}; !- Thermal Zone Name

OS:Surface,
  {9d7c085c-bff5-4e9c-acbe-93e7eec18ecf}, !- Handle
  Surface 19,                             !- Name
  Floor,                                  !- Surface Type
  ,                                       !- Construction Name
  {0e4e4326-1536-47f4-ae4f-8f6af799ea75}, !- Space Name
  Ground,                                 !- Outside Boundary Condition
  ,                                       !- Outside Boundary Condition Object
  NoSun,                                  !- Sun Exposure
  NoWind,                                 !- Wind Exposure
  ,                                       !- View Factor to Ground
  ,                                       !- Number of Vertices
  21.3541565040626, 0, 0,                 !- X,Y,Z Vertex 1 {m}
  0, 0, 0,                                !- X,Y,Z Vertex 2 {m}
  3, 3, 0,                                !- X,Y,Z Vertex 3 {m}
  18.3541565040626, 3, 0;                 !- X,Y,Z Vertex 4 {m}

OS:Surface,
  {9c430578-447d-4449-a17d-3c693d12ffa8}, !- Handle
  Surface 20,                             !- Name
  Wall,                                   !- Surface Type
  ,                                       !- Construction Name
  {0e4e4326-1536-47f4-ae4f-8f6af799ea75}, !- Space Name
  Outdoors,                               !- Outside Boundary Condition
  ,                                       !- Outside Boundary Condition Object
  SunExposed,                             !- Sun Exposure
  WindExposed,                            !- Wind Exposure
  ,                                       !- View Factor to Ground
  ,                                       !- Number of Vertices
  0, 0, 4,                                !- X,Y,Z Vertex 1 {m}
  0, 0, 0,                                !- X,Y,Z Vertex 2 {m}
  21.3541565040626, 0, 0,                 !- X,Y,Z Vertex 3 {m}
  21.3541565040626, 0, 4;                 !- X,Y,Z Vertex 4 {m}

OS:Surface,
  {ed2a2e8e-4447-4a28-8ca4-5fecbfd000cb}, !- Handle
  Surface 21,                             !- Name
  Wall,                                   !- Surface Type
  ,                                       !- Construction Name
  {0e4e4326-1536-47f4-ae4f-8f6af799ea75}, !- Space Name
  Surface,                                !- Outside Boundary Condition
  {94cfc3c0-e863-48f2-9543-77440ef6acf7}, !- Outside Boundary Condition Object
  NoSun,                                  !- Sun Exposure
  NoWind,                                 !- Wind Exposure
  ,                                       !- View Factor to Ground
  ,                                       !- Number of Vertices
  3, 3, 4,                                !- X,Y,Z Vertex 1 {m}
  3, 3, 0,                                !- X,Y,Z Vertex 2 {m}
  0, 0, 0,                                !- X,Y,Z Vertex 3 {m}
  0, 0, 4;                                !- X,Y,Z Vertex 4 {m}

OS:Surface,
  {603a581e-9da0-4224-9788-0672f1e9be92}, !- Handle
  Surface 22,                             !- Name
  Wall,                                   !- Surface Type
  ,                                       !- Construction Name
  {0e4e4326-1536-47f4-ae4f-8f6af799ea75}, !- Space Name
  Surface,                                !- Outside Boundary Condition
  {6a466b76-feab-40bd-bfd6-ac9db061a746}, !- Outside Boundary Condition Object
  NoSun,                                  !- Sun Exposure
  NoWind,                                 !- Wind Exposure
  ,                                       !- View Factor to Ground
  ,                                       !- Number of Vertices
  18.3541565040626, 3, 4,                 !- X,Y,Z Vertex 1 {m}
  18.3541565040626, 3, 0,                 !- X,Y,Z Vertex 2 {m}
  3, 3, 0,                                !- X,Y,Z Vertex 3 {m}
  3, 3, 4;                                !- X,Y,Z Vertex 4 {m}

OS:Surface,
  {187f229d-577d-4b59-a7f3-cec3de397fe5}, !- Handle
  Surface 23,                             !- Name
  Wall,                                   !- Surface Type
  ,                                       !- Construction Name
  {0e4e4326-1536-47f4-ae4f-8f6af799ea75}, !- Space Name
  Surface,                                !- Outside Boundary Condition
  {5287b92a-e538-48a4-973f-df8d4698c8bf}, !- Outside Boundary Condition Object
  NoSun,                                  !- Sun Exposure
  NoWind,                                 !- Wind Exposure
  ,                                       !- View Factor to Ground
  ,                                       !- Number of Vertices
  21.3541565040626, 0, 4,                 !- X,Y,Z Vertex 1 {m}
  21.3541565040626, 0, 0,                 !- X,Y,Z Vertex 2 {m}
  18.3541565040626, 3, 0,                 !- X,Y,Z Vertex 3 {m}
  18.3541565040626, 3, 4;                 !- X,Y,Z Vertex 4 {m}

OS:Surface,
  {710a43e7-9ad0-426b-9268-8ca79458c5fc}, !- Handle
  Surface 24,                             !- Name
  RoofCeiling,                            !- Surface Type
  ,                                       !- Construction Name
  {0e4e4326-1536-47f4-ae4f-8f6af799ea75}, !- Space Name
  Outdoors,                               !- Outside Boundary Condition
  ,                                       !- Outside Boundary Condition Object
  SunExposed,                             !- Sun Exposure
  WindExposed,                            !- Wind Exposure
  ,                                       !- View Factor to Ground
  ,                                       !- Number of Vertices
  18.3541565040626, 3, 4,                 !- X,Y,Z Vertex 1 {m}
  3, 3, 4,                                !- X,Y,Z Vertex 2 {m}
  0, 0, 4,                                !- X,Y,Z Vertex 3 {m}
  21.3541565040626, 0, 4;                 !- X,Y,Z Vertex 4 {m}

OS:Space,
  {4afd892d-cd51-46eb-b260-2cbdbc849bc0}, !- Handle
  Story 1 Core Space,                     !- Name
  ,                                       !- Space Type Name
  ,                                       !- Default Construction Set Name
  ,                                       !- Default Schedule Set Name
  -0,                                     !- Direction of Relative North {deg}
  3,                                      !- X Origin {m}
  3,                                      !- Y Origin {m}
  0,                                      !- Z Origin {m}
  {26f6183f-14cd-4e3b-9c4f-33a252edb98c}, !- Building Story Name
  {f709ec26-daa1-4c33-9b33-d4f1e9d794bf}; !- Thermal Zone Name

OS:Surface,
  {f0a04102-d910-462d-a5ee-d56430d8aba6}, !- Handle
  Surface 25,                             !- Name
  Floor,                                  !- Surface Type
  ,                                       !- Construction Name
  {4afd892d-cd51-46eb-b260-2cbdbc849bc0}, !- Space Name
  Ground,                                 !- Outside Boundary Condition
  ,                                       !- Outside Boundary Condition Object
  NoSun,                                  !- Sun Exposure
  NoWind,                                 !- Wind Exposure
  ,                                       !- View Factor to Ground
  ,                                       !- Number of Vertices
  0, 0, 0,                                !- X,Y,Z Vertex 1 {m}
  0, 15.3541565040626, 0,                 !- X,Y,Z Vertex 2 {m}
  15.3541565040626, 15.3541565040626, 0,  !- X,Y,Z Vertex 3 {m}
  15.3541565040626, 0, 0;                 !- X,Y,Z Vertex 4 {m}

OS:Surface,
  {ef78398e-21ba-47f7-a75e-62f6720f42b3}, !- Handle
  Surface 26,                             !- Name
  Wall,                                   !- Surface Type
  ,                                       !- Construction Name
  {4afd892d-cd51-46eb-b260-2cbdbc849bc0}, !- Space Name
  Surface,                                !- Outside Boundary Condition
  {fa2baf14-995b-4552-834e-303ba4ecb159}, !- Outside Boundary Condition Object
  NoSun,                                  !- Sun Exposure
  NoWind,                                 !- Wind Exposure
  ,                                       !- View Factor to Ground
  ,                                       !- Number of Vertices
  0, 15.3541565040626, 4,                 !- X,Y,Z Vertex 1 {m}
  0, 15.3541565040626, 0,                 !- X,Y,Z Vertex 2 {m}
  0, 0, 0,                                !- X,Y,Z Vertex 3 {m}
  0, 0, 4;                                !- X,Y,Z Vertex 4 {m}

OS:Surface,
  {f5e25e1d-6717-4bc2-b7bf-0bfe179ce7bb}, !- Handle
  Surface 27,                             !- Name
  Wall,                                   !- Surface Type
  ,                                       !- Construction Name
  {4afd892d-cd51-46eb-b260-2cbdbc849bc0}, !- Space Name
  Surface,                                !- Outside Boundary Condition
  {269b6171-6e84-46a5-abb4-733375fecd9d}, !- Outside Boundary Condition Object
  NoSun,                                  !- Sun Exposure
  NoWind,                                 !- Wind Exposure
  ,                                       !- View Factor to Ground
  ,                                       !- Number of Vertices
  15.3541565040626, 15.3541565040626, 4,  !- X,Y,Z Vertex 1 {m}
  15.3541565040626, 15.3541565040626, 0,  !- X,Y,Z Vertex 2 {m}
  0, 15.3541565040626, 0,                 !- X,Y,Z Vertex 3 {m}
  0, 15.3541565040626, 4;                 !- X,Y,Z Vertex 4 {m}

OS:Surface,
  {9df3e0c1-6ffc-4cfd-9786-c29ee531fb2e}, !- Handle
  Surface 28,                             !- Name
  Wall,                                   !- Surface Type
  ,                                       !- Construction Name