
OS:Version,
  {3ada615a-a6a0-4808-ab69-1c34585cd421}, !- Handle
  0.10.0;                                 !- Version Identifier

OS:BuildingStory,
  {abb1ad87-a729-493e-b1cb-d9b2561e0cb6}, !- Handle
  Story 1,                                !- Name
  0,                                      !- Nominal Z Coordinate {m}
  4,                                      !- Nominal Floor to Floor Height {m}
  ,                                       !- Default Construction Set Name
  ,                                       !- Default Schedule Set Name
  ;                                       !- Group Rendering Name

OS:Space,
  {745d7dd1-a960-4f4c-88ff-a69aedc0cd3b}, !- Handle
  Story 1 West Perimeter Space,           !- Name
  ,                                       !- Space Type Name
  ,                                       !- Default Construction Set Name
  ,                                       !- Default Schedule Set Name
  -0,                                     !- Direction of Relative North {deg}
  0,                                      !- X Origin {m}
  0,                                      !- Y Origin {m}
  0,                                      !- Z Origin {m}
  {abb1ad87-a729-493e-b1cb-d9b2561e0cb6}, !- Building Story Name
  {0ce254b5-6b5e-440f-aed2-a3cdf085e025}; !- Thermal Zone Name

OS:Surface,
  {41fa2c35-b8a0-4830-a53c-59204d037c0c}, !- Handle
  Surface 1,                              !- Name
  Floor,                                  !- Surface Type
  ,                                       !- Construction Name
  {745d7dd1-a960-4f4c-88ff-a69aedc0cd3b}, !- Space Name
  Ground,                                 !- Outside Boundary Condition
  ,                                       !- Outside Boundary Condition Object
  NoSun,                                  !- Sun Exposure
  NoWind,                                 !- Wind Exposure
  ,                                       !- View Factor to Ground
  ,                                       !- Number of Vertices
  0, 0, 0,                                !- X,Y,Z Vertex 1 {m}
  0, 16.2788205960997, 0,                 !- X,Y,Z Vertex 2 {m}
  3, 13.2788205960997, 0,                 !- X,Y,Z Vertex 3 {m}
  3, 3, 0;                                !- X,Y,Z Vertex 4 {m}

OS:Surface,
  {cbb75cfa-bd1c-4ced-882d-abc43649eb2b}, !- Handle
  Surface 2,                              !- Name
  Wall,                                   !- Surface Type
  ,                                       !- Construction Name
  {745d7dd1-a960-4f4c-88ff-a69aedc0cd3b}, !- Space Name
  Outdoors,                               !- Outside Boundary Condition
  ,                                       !- Outside Boundary Condition Object
  SunExposed,                             !- Sun Exposure
  WindExposed,                            !- Wind Exposure
  ,                                       !- View Factor to Ground
  ,                                       !- Number of Vertices
  0, 16.2788205960997, 4,                 !- X,Y,Z Vertex 1 {m}
  0, 16.2788205960997, 0,                 !- X,Y,Z Vertex 2 {m}
  0, 0, 0,                                !- X,Y,Z Vertex 3 {m}
  0, 0, 4;                                !- X,Y,Z Vertex 4 {m}

OS:Surface,
  {7f64649c-89ed-4a46-a35b-3ba0924e572f}, !- Handle
  Surface 3,                              !- Name
  Wall,                                   !- Surface Type
  ,                                       !- Construction Name
  {745d7dd1-a960-4f4c-88ff-a69aedc0cd3b}, !- Space Name
  Surface,                                !- Outside Boundary Condition
  {cc7218ca-9a7b-4932-abdd-1fe04e2bdcfe}, !- Outside Boundary Condition Object
  NoSun,                                  !- Sun Exposure
  NoWind,                                 !- Wind Exposure
  ,                                       !- View Factor to Ground
  ,                                       !- Number of Vertices
  3, 13.2788205960997, 4,                 !- X,Y,Z Vertex 1 {m}
  3, 13.2788205960997, 0,                 !- X,Y,Z Vertex 2 {m}
  0, 16.2788205960997, 0,                 !- X,Y,Z Vertex 3 {m}
  0, 16.2788205960997, 4;                 !- X,Y,Z Vertex 4 {m}

OS:Surface,
  {45407799-8127-4eb0-85ac-e8e3aee4e904}, !- Handle
  Surface 4,                              !- Name
  Wall,                                   !- Surface Type
  ,                                       !- Construction Name
  {745d7dd1-a960-4f4c-88ff-a69aedc0cd3b}, !- Space Name
  Surface,                                !- Outside Boundary Condition
  {f7201b0d-b9af-40a0-b816-7caec647a2f7}, !- Outside Boundary Condition Object
  NoSun,                                  !- Sun Exposure
  NoWind,                                 !- Wind Exposure
  ,                                       !- View Factor to Ground
  ,                                       !- Number of Vertices
  3, 3, 4,                                !- X,Y,Z Vertex 1 {m}
  3, 3, 0,                                !- X,Y,Z Vertex 2 {m}
  3, 13.2788205960997, 0,                 !- X,Y,Z Vertex 3 {m}
  3, 13.2788205960997, 4;                 !- X,Y,Z Vertex 4 {m}

OS:Surface,
  {6cd3d07f-45d1-47ca-add9-1b359f61a9d2}, !- Handle
  Surface 5,                              !- Name
  Wall,                                   !- Surface Type
  ,                                       !- Construction Name
  {745d7dd1-a960-4f4c-88ff-a69aedc0cd3b}, !- Space Name
  Surface,                                !- Outside Boundary Condition
  {08d6e356-a9cf-463f-b687-7af2a5265cf2}, !- Outside Boundary Condition Object
  NoSun,                                  !- Sun Exposure
  NoWind,                                 !- Wind Exposure
  ,                                       !- View Factor to Ground
  ,                                       !- Number of Vertices
  0, 0, 4,                                !- X,Y,Z Vertex 1 {m}
  0, 0, 0,                                !- X,Y,Z Vertex 2 {m}
  3, 3, 0,                                !- X,Y,Z Vertex 3 {m}
  3, 3, 4;                                !- X,Y,Z Vertex 4 {m}

OS:Surface,
  {a431bd74-2b91-4c5e-89dc-0bbe90399828}, !- Handle
  Surface 6,                              !- Name
  RoofCeiling,                            !- Surface Type
  ,                                       !- Construction Name
  {745d7dd1-a960-4f4c-88ff-a69aedc0cd3b}, !- Space Name
  Outdoors,                               !- Outside Boundary Condition
  ,                                       !- Outside Boundary Condition Object
  SunExposed,                             !- Sun Exposure
  WindExposed,                            !- Wind Exposure
  ,                                       !- View Factor to Ground
  ,                                       !- Number of Vertices
  3, 3, 4,                                !- X,Y,Z Vertex 1 {m}
  3, 13.2788205960997, 4,                 !- X,Y,Z Vertex 2 {m}
  0, 16.2788205960997, 4,                 !- X,Y,Z Vertex 3 {m}
  0, 0, 4;                                !- X,Y,Z Vertex 4 {m}

OS:Space,
  {69aed832-7eb7-45fd-927a-d906d4366d3c}, !- Handle
  Story 1 North Perimeter Space,          !- Name
  ,                                       !- Space Type Name
  ,                                       !- Default Construction Set Name
  ,                                       !- Default Schedule Set Name
  -0,                                     !- Direction of Relative North {deg}
  3,                                      !- X Origin {m}
  13.2788205960997,                       !- Y Origin {m}
  0,                                      !- Z Origin {m}
  {abb1ad87-a729-493e-b1cb-d9b2561e0cb6}, !- Building Story Name
  {f2bb28ff-ce9a-4e32-b566-7e17d4a05a04}; !- Thermal Zone Name

OS:Surface,
  {a37e652c-3903-46a7-a7b8-61cf140824cc}, !- Handle
  Surface 7,                              !- Name
  Floor,                                  !- Surface Type
  ,                                       !- Construction Name
  {69aed832-7eb7-45fd-927a-d906d4366d3c}, !- Space Name
  Ground,                                 !- Outside Boundary Condition
  ,                                       !- Outside Boundary Condition Object
  NoSun,                                  !- Sun Exposure
  NoWind,                                 !- Wind Exposure
  ,                                       !- View Factor to Ground
  ,                                       !- Number of Vertices
  -3, 2.99999999999999, 0,                !- X,Y,Z Vertex 1 {m}
  13.2788205960997, 2.99999999999999, 0,  !- X,Y,Z Vertex 2 {m}
  10.2788205960997, -5.32907051820075e-15, 0, !- X,Y,Z Vertex 3 {m}
  0, -5.32907051820075e-15, 0;            !- X,Y,Z Vertex 4 {m}

OS:Surface,
  {7abb41f2-b6ea-405f-a5bd-c004bb9473ef}, !- Handle
  Surface 8,                              !- Name
  Wall,                                   !- Surface Type
  ,                                       !- Construction Name
  {69aed832-7eb7-45fd-927a-d906d4366d3c}, !- Space Name
  Outdoors,                               !- Outside Boundary Condition
  ,                                       !- Outside Boundary Condition Object
  SunExposed,                             !- Sun Exposure
  WindExposed,                            !- Wind Exposure
  ,                                       !- View Factor to Ground
  ,                                       !- Number of Vertices
  13.2788205960997, 2.99999999999999, 4,  !- X,Y,Z Vertex 1 {m}
  13.2788205960997, 2.99999999999999, 0,  !- X,Y,Z Vertex 2 {m}
  -3, 2.99999999999999, 0,                !- X,Y,Z Vertex 3 {m}
  -3, 2.99999999999999, 4;                !- X,Y,Z Vertex 4 {m}

OS:Surface,
  {c9217506-9e6b-414e-9b23-0c5f5d6e7b64}, !- Handle
  Surface 9,                              !- Name
  Wall,                                   !- Surface Type
  ,                                       !- Construction Name
  {69aed832-7eb7-45fd-927a-d906d4366d3c}, !- Space Name
  Surface,                                !- Outside Boundary Condition
  {cf98a099-28a2-4114-98d3-6ffecd52d4dc}, !- Outside Boundary Condition Object
  NoSun,                                  !- Sun Exposure
  NoWind,                                 !- Wind Exposure
  ,                                       !- View Factor to Ground
  ,                                       !- Number of Vertices
  10.2788205960997, -5.32907051820075e-15, 4, !- X,Y,Z Vertex 1 {m}
  10.2788205960997, -5.32907051820075e-15, 0, !- X,Y,Z Vertex 2 {m}
  13.2788205960997, 2.99999999999999, 0,  !- X,Y,Z Vertex 3 {m}
  13.2788205960997, 2.99999999999999, 4;  !- X,Y,Z Vertex 4 {m}

OS:Surface,
  {d73e41b3-2728-4fe4-bc8b-e34c38c33fad}, !- Handle
  Surface 10,                             !- Name
  Wall,                                   !- Surface Type
  ,                                       !- Construction Name
  {69aed832-7eb7-45fd-927a-d906d4366d3c}, !- Space Name
  Surface,                                !- Outside Boundary Condition
  {c85c5dd8-f9f5-45ce-84c9-464cec0aa077}, !- Outside Boundary Condition Object
  NoSun,                                  !- Sun Exposure
  NoWind,                                 !- Wind Exposure
  ,                                       !- View Factor to Ground
  ,                                       !- Number of Vertices
  0, -5.32907051820075e-15, 4,            !- X,Y,Z Vertex 1 {m}
  0, -5.32907051820075e-15, 0,            !- X,Y,Z Vertex 2 {m}
  10.2788205960997, -5.32907051820075e-15, 0, !- X,Y,Z Vertex 3 {m}
  10.2788205960997, -5.32907051820075e-15, 4; !- X,Y,Z Vertex 4 {m}

OS:Surface,
  {cc7218ca-9a7b-4932-abdd-1fe04e2bdcfe}, !- Handle
  Surface 11,                             !- Name
  Wall,                                   !- Surface Type
  ,                                       !- Construction Name
  {69aed832-7eb7-45fd-927a-d906d4366d3c}, !- Space Name
  Surface,                                !- Outside Boundary Condition
  {7f64649c-89ed-4a46-a35b-3ba0924e572f}, !- Outside Boundary Condition Object
  NoSun,                                  !- Sun Exposure
  NoWind,                                 !- Wind Exposure
  ,                                       !- View Factor to Ground
  ,                                       !- Number of Vertices
  -3, 2.99999999999999, 4,                !- X,Y,Z Vertex 1 {m}
  -3, 2.99999999999999, 0,                !- X,Y,Z Vertex 2 {m}
  0, -5.32907051820075e-15, 0,            !- X,Y,Z Vertex 3 {m}
  0, -5.32907051820075e-15, 4;            !- X,Y,Z Vertex 4 {m}

OS:Surface,
  {7511086b-8f58-4e79-a065-568aa0b745d6}, !- Handle
  Surface 12,                             !- Name
  RoofCeiling,                            !- Surface Type
  ,                                       !- Construction Name
  {69aed832-7eb7-45fd-927a-d906d4366d3c}, !- Space Name
  Outdoors,                               !- Outside Boundary Condition
  ,                                       !- Outside Boundary Condition Object
  SunExposed,                             !- Sun Exposure
  WindExposed,                            !- Wind Exposure
  ,                                       !- View Factor to Ground
  ,                                       !- Number of Vertices
  0, -5.32907051820075e-15, 4,            !- X,Y,Z Vertex 1 {m}
  10.2788205960997, -5.32907051820075e-15, 4, !- X,Y,Z Vertex 2 {m}
  13.2788205960997, 2.99999999999999, 4,  !- X,Y,Z Vertex 3 {m}
  -3, 2.99999999999999, 4;                !- X,Y,Z Vertex 4 {m}

OS:Space,
  {61907499-0d52-47f9-b452-196b974f5a5e}, !- Handle
  Story 1 East Perimeter Space,           !- Name
  ,                                       !- Space Type Name
  ,                                       !- Default Construction Set Name
  ,                                       !- Default Schedule Set Name
  -0,                                     !- Direction of Relative North {deg}
  13.2788205960997,                       !- X Origin {m}
  3,                                      !- Y Origin {m}
  0,                                      !- Z Origin {m}
  {abb1ad87-a729-493e-b1cb-d9b2561e0cb6}, !- Building Story Name
  {aa1c3c59-4b7f-4f0e-8623-6ea5fe7344a1}; !- Thermal Zone Name

OS:Surface,
  {b629e639-a755-4df9-99f9-dcd868ae53a8}, !- Handle
  Surface 13,                             !- Name
  Floor,                                  !- Surface Type
  ,                                       !- Construction Name
  {61907499-0d52-47f9-b452-196b974f5a5e}, !- Space Name
  Ground,                                 !- Outside Boundary Condition
  ,                                       !- Outside Boundary Condition Object
  NoSun,                                  !- Sun Exposure
  NoWind,                                 !- Wind Exposure
  ,                                       !- View Factor to Ground
  ,                                       !- Number of Vertices
  2.99999999999999, 13.2788205960997, 0,  !- X,Y,Z Vertex 1 {m}
  2.99999999999999, -3, 0,                !- X,Y,Z Vertex 2 {m}
  -5.32907051820075e-15, 0, 0,            !- X,Y,Z Vertex 3 {m}
  -5.32907051820075e-15, 10.2788205960997, 0; !- X,Y,Z Vertex 4 {m}

OS:Surface,
  {19f683f6-7078-40d9-aa97-71e12b18dc6a}, !- Handle
  Surface 14,                             !- Name
  Wall,                                   !- Surface Type
  ,                                       !- Construction Name
  {61907499-0d52-47f9-b452-196b974f5a5e}, !- Space Name
  Outdoors,                               !- Outside Boundary Condition
  ,                                       !- Outside Boundary Condition Object
  SunExposed,                             !- Sun Exposure
  WindExposed,                            !- Wind Exposure
  ,                                       !- View Factor to Ground
  ,                                       !- Number of Vertices
  2.99999999999999, -3, 4,                !- X,Y,Z Vertex 1 {m}
  2.99999999999999, -3, 0,                !- X,Y,Z Vertex 2 {m}
  2.99999999999999, 13.2788205960997, 0,  !- X,Y,Z Vertex 3 {m}
  2.99999999999999, 13.2788205960997, 4;  !- X,Y,Z Vertex 4 {m}

OS:Surface,
  {4bee91e0-8073-4679-8a67-e43e20721eb4}, !- Handle
  Surface 15,                             !- Name
  Wall,                                   !- Surface Type
  ,                                       !- Construction Name
  {61907499-0d52-47f9-b452-196b974f5a5e}, !- Space Name
  Surface,                                !- Outside Boundary Condition
  {9839a5d5-02c9-4156-9599-d0afd4264915}, !- Outside Boundary Condition Object
  NoSun,                                  !- Sun Exposure
  NoWind,                                 !- Wind Exposure
  ,                                       !- View Factor to Ground
  ,                                       !- Number of Vertices
  -5.32907051820075e-15, 0, 4,            !- X,Y,Z Vertex 1 {m}
  -5.32907051820075e-15, 0, 0,            !- X,Y,Z Vertex 2 {m}
  2.99999999999999, -3, 0,                !- X,Y,Z Vertex 3 {m}
  2.99999999999999, -3, 4;                !- X,Y,Z Vertex 4 {m}

OS:Surface,
  {36ff4c65-f8ff-4ee7-9fee-dd943bbebd9f}, !- Handle
  Surface 16,                             !- Name
  Wall,                                   !- Surface Type
  ,                                       !- Construction Name
  {61907499-0d52-47f9-b452-196b974f5a5e}, !- Space Name
  Surface,                                !- Outside Boundary Condition
  {017c30e5-ada3-4463-a230-07fa7ccb7d5a}, !- Outside Boundary Condition Object
  NoSun,                                  !- Sun Exposure
  NoWind,                                 !- Wind Exposure
  ,                                       !- View Factor to Ground
  ,                                       !- Number of Vertices
  -5.32907051820075e-15, 10.2788205960997, 4, !- X,Y,Z Vertex 1 {m}
  -5.32907051820075e-15, 10.2788205960997, 0, !- X,Y,Z Vertex 2 {m}
  -5.32907051820075e-15, 0, 0,            !- X,Y,Z Vertex 3 {m}
  -5.32907051820075e-15, 0, 4;            !- X,Y,Z Vertex 4 {m}

OS:Surface,
  {cf98a099-28a2-4114-98d3-6ffecd52d4dc}, !- Handle
  Surface 17,                             !- Name
  Wall,                                   !- Surface Type
  ,                                       !- Construction Name
  {61907499-0d52-47f9-b452-196b974f5a5e}, !- Space Name
  Surface,                                !- Outside Boundary Condition
  {c9217506-9e6b-414e-9b23-0c5f5d6e7b64}, !- Outside Boundary Condition Object
  NoSun,                                  !- Sun Exposure
  NoWind,                                 !- Wind Exposure
  ,                                       !- View Factor to Ground
  ,                                       !- Number of Vertices
  2.99999999999999, 13.2788205960997, 4,  !- X,Y,Z Vertex 1 {m}
  2.99999999999999, 13.2788205960997, 0,  !- X,Y,Z Vertex 2 {m}
  -5.32907051820075e-15, 10.2788205960997, 0, !- X,Y,Z Vertex 3 {m}
  -5.32907051820075e-15, 10.2788205960997, 4; !- X,Y,Z Vertex 4 {m}

OS:Surface,
  {364b649e-e86b-4ef6-969a-11fd4002351e}, !- Handle
  Surface 18,                             !- Name
  RoofCeiling,                            !- Surface Type
  ,                                       !- Construction Name
  {61907499-0d52-47f9-b452-196b974f5a5e}, !- Space Name
  Outdoors,                               !- Outside Boundary Condition
  ,                                       !- Outside Boundary Condition Object
  SunExposed,                             !- Sun Exposure
  WindExposed,                            !- Wind Exposure
  ,                                       !- View Factor to Ground
  ,                                       !- Number of Vertices
  -5.32907051820075e-15, 10.2788205960997, 4, !- X,Y,Z Vertex 1 {m}
  -5.32907051820075e-15, 0, 4,            !- X,Y,Z Vertex 2 {m}
  2.99999999999999, -3, 4,                !- X,Y,Z Vertex 3 {m}
  2.99999999999999, 13.2788205960997, 4;  !- X,Y,Z Vertex 4 {m}

OS:Space,
  {9d921831-4a83-4740-a140-6d52c28fd91b}, !- Handle
  Story 1 South Perimeter Space,          !- Name
  ,                                       !- Space Type Name
  ,                                       !- Default Construction Set Name
  ,                                       !- Default Schedule Set Name
  -0,                                     !- Direction of Relative North {deg}
  0,                                      !- X Origin {m}
  0,                                      !- Y Origin {m}
  0,                                      !- Z Origin {m}
  {abb1ad87-a729-493e-b1cb-d9b2561e0cb6}, !- Building Story Name
  {efe8220c-feb0-4ab0-94ee-9d75072dc3ac}; !- Thermal Zone Name

OS:Surface,
  {81c68d55-b9a8-464e-b5f1-f6ff687a84b0}, !- Handle
  Surface 19,                             !- Name
  Floor,                                  !- Surface Type
  ,                                       !- Construction Name
  {9d921831-4a83-4740-a140-6d52c28fd91b}, !- Space Name
  Ground,                                 !- Outside Boundary Condition
  ,                                       !- Outside Boundary Condition Object
  NoSun,                                  !- Sun Exposure
  NoWind,                                 !- Wind Exposure
  ,                                       !- View Factor to Ground
  ,                                       !- Number of Vertices
  16.2788205960997, 0, 0,                 !- X,Y,Z Vertex 1 {m}
  0, 0, 0,                                !- X,Y,Z Vertex 2 {m}
  3, 3, 0,                                !- X,Y,Z Vertex 3 {m}
  13.2788205960997, 3, 0;                 !- X,Y,Z Vertex 4 {m}

OS:Surface,
  {9f9e6c29-4d8c-4181-a0c4-7ea7b778cfa6}, !- Handle
  Surface 20,                             !- Name
  Wall,                                   !- Surface Type
  ,                                       !- Construction Name
  {9d921831-4a83-4740-a140-6d52c28fd91b}, !- Space Name
  Outdoors,                               !- Outside Boundary Condition
  ,                                       !- Outside Boundary Condition Object
  SunExposed,                             !- Sun Exposure
  WindExposed,                            !- Wind Exposure
  ,                                       !- View Factor to Ground
  ,                                       !- Number of Vertices
  0, 0, 4,                                !- X,Y,Z Vertex 1 {m}
  0, 0, 0,                                !- X,Y,Z Vertex 2 {m}
  16.2788205960997, 0, 0,                 !- X,Y,Z Vertex 3 {m}
  16.2788205960997, 0, 4;                 !- X,Y,Z Vertex 4 {m}

OS:Surface,
  {08d6e356-a9cf-463f-b687-7af2a5265cf2}, !- Handle
  Surface 21,                             !- Name
  Wall,                                   !- Surface Type
  ,                                       !- Construction Name
  {9d921831-4a83-4740-a140-6d52c28fd91b}, !- Space Name
  Surface,                                !- Outside Boundary Condition
  {6cd3d07f-45d1-47ca-add9-1b359f61a9d2}, !- Outside Boundary Condition Object
  NoSun,                                  !- Sun Exposure
  NoWind,                                 !- Wind Exposure
  ,                                       !- View Factor to Ground
  ,                                       !- Number of Vertices
  3, 3, 4,                                !- X,Y,Z Vertex 1 {m}
  3, 3, 0,                                !- X,Y,Z Vertex 2 {m}
  0, 0, 0,                                !- X,Y,Z Vertex 3 {m}
  0, 0, 4;                                !- X,Y,Z Vertex 4 {m}

OS:Surface,
  {8cdc20a9-8cb6-4585-b538-249939867493}, !- Handle
  Surface 22,                             !- Name
  Wall,                                   !- Surface Type
  ,                                       !- Construction Name
  {9d921831-4a83-4740-a140-6d52c28fd91b}, !- Space Name
  Surface,                                !- Outside Boundary Condition
  {cfcadbc0-5751-49a7-b7c2-74a20aa8edcf}, !- Outside Boundary Condition Object
  NoSun,                                  !- Sun Exposure
  NoWind,                                 !- Wind Exposure
  ,                                       !- View Factor to Ground
  ,                                       !- Number of Vertices
  13.2788205960997, 3, 4,                 !- X,Y,Z Vertex 1 {m}
  13.2788205960997, 3, 0,                 !- X,Y,Z Vertex 2 {m}
  3, 3, 0,                                !- X,Y,Z Vertex 3 {m}
  3, 3, 4;                                !- X,Y,Z Vertex 4 {m}

OS:Surface,
  {9839a5d5-02c9-4156-9599-d0afd4264915}, !- Handle
  Surface 23,                             !- Name
  Wall,                                   !- Surface Type
  ,                                       !- Construction Name
  {9d921831-4a83-4740-a140-6d52c28fd91b}, !- Space Name
  Surface,                                !- Outside Boundary Condition
  {4bee91e0-8073-4679-8a67-e43e20721eb4}, !- Outside Boundary Condition Object
  NoSun,                                  !- Sun Exposure
  NoWind,                                 !- Wind Exposure
  ,                                       !- View Factor to Ground
  ,                                       !- Number of Vertices
  16.2788205960997, 0, 4,                 !- X,Y,Z Vertex 1 {m}
  16.2788205960997, 0, 0,                 !- X,Y,Z Vertex 2 {m}
  13.2788205960997, 3, 0,                 !- X,Y,Z Vertex 3 {m}
  13.2788205960997, 3, 4;                 !- X,Y,Z Vertex 4 {m}

OS:Surface,
  {0d03868c-5735-49b4-9100-962695b49e2c}, !- Handle
  Surface 24,                             !- Name
  RoofCeiling,                            !- Surface Type
  ,                                       !- Construction Name
  {9d921831-4a83-4740-a140-6d52c28fd91b}, !- Space Name
  Outdoors,                               !- Outside Boundary Condition
  ,                                       !- Outside Boundary Condition Object
  SunExposed,                             !- Sun Exposure
  WindExposed,                            !- Wind Exposure
  ,                                       !- View Factor to Ground
  ,                                       !- Number of Vertices
  13.2788205960997, 3, 4,                 !- X,Y,Z Vertex 1 {m}
  3, 3, 4,                                !- X,Y,Z Vertex 2 {m}
  0, 0, 4,                                !- X,Y,Z Vertex 3 {m}
  16.2788205960997, 0, 4;                 !- X,Y,Z Vertex 4 {m}

OS:Space,
  {e0a907d3-3575-4ef9-bec1-a5bb209cc9c3}, !- Handle
  Story 1 Core Space,                     !- Name
  ,                                       !- Space Type Name
  ,                                       !- Default Construction Set Name
  ,                                       !- Default Schedule Set Name
  -0,                                     !- Direction of Relative North {deg}
  3,                                      !- X Origin {m}
  3,                                      !- Y Origin {m}
  0,                                      !- Z Origin {m}
  {abb1ad87-a729-493e-b1cb-d9b2561e0cb6}, !- Building Story Name
  {596ae108-2997-48ae-b701-cd370ad958b7}; !- Thermal Zone Name

OS:Surface,
  {21887d25-38d5-4958-b860-e3909ba5fa7a}, !- Handle
  Surface 25,                             !- Name
  Floor,                                  !- Surface Type
  ,                                       !- Construction Name
  {e0a907d3-3575-4ef9-bec1-a5bb209cc9c3}, !- Space Name
  Ground,                                 !- Outside Boundary Condition
  ,                                       !- Outside Boundary Condition Object
  NoSun,                                  !- Sun Exposure
  NoWind,                                 !- Wind Exposure
  ,                                       !- View Factor to Ground
  ,                                       !- Number of Vertices
  0, 0, 0,                                !- X,Y,Z Vertex 1 {m}
  0, 10.2788205960997, 0,                 !- X,Y,Z Vertex 2 {m}
  10.2788205960997, 10.2788205960997, 0,  !- X,Y,Z Vertex 3 {m}
  10.2788205960997, 0, 0;                 !- X,Y,Z Vertex 4 {m}

OS:Surface,
  {f7201b0d-b9af-40a0-b816-7caec647a2f7}, !- Handle
  Surface 26,                             !- Name
  Wall,                                   !- Surface Type
  ,                                       !- Construction Name
  {e0a907d3-3575-4ef9-bec1-a5bb209cc9c3}, !- Space Name
  Surface,                                !- Outside Boundary Condition
  {45407799-8127-4eb0-85ac-e8e3aee4e904}, !- Outside Boundary Condition Object
  NoSun,                                  !- Sun Exposure
  NoWind,                                 !- Wind Exposure
  ,                                       !- View Factor to Ground
  ,                                       !- Number of Vertices
  0, 10.2788205960997, 4,                 !- X,Y,Z Vertex 1 {m}
  0, 10.2788205960997, 0,                 !- X,Y,Z Vertex 2 {m}
  0, 0, 0,                                !- X,Y,Z Vertex 3 {m}
  0, 0, 4;                                !- X,Y,Z Vertex 4 {m}

OS:Surface,
  {c85c5dd8-f9f5-45ce-84c9-464cec0aa077}, !- Handle
  Surface 27,                             !- Name
  Wall,                                   !- Surface Type
  ,                                       !- Construction Name
  {e0a907d3-3575-4ef9-bec1-a5bb209cc9c3}, !- Space Name
  Surface,                                !- Outside Boundary Condition
  {d73e41b3-2728-4fe4-bc8b-e34c38c33fad}, !- Outside Boundary Condition Object
  NoSun,                                  !- Sun Exposure
  NoWind,                                 !- Wind Exposure
  ,                                       !- View Factor to Ground
  ,                                       !- Number of Vertices
  10.2788205960997, 10.2788205960997, 4,  !- X,Y,Z Vertex 1 {m}
  10.2788205960997, 10.2788205960997, 0,  !- X,Y,Z Vertex 2 {m}
  0, 10.2788205960997, 0,                 !- X,Y,Z Vertex 3 {m}
  0, 10.2788205960997, 4;                 !- X,Y,Z Vertex 4 {m}

OS:Surface,
  {017c30e5-ada3-4463-a230-07fa7ccb7d5a}, !- Handle
  Surface 28,                             !- Name
  Wall,                                   !- Surface Type
  ,                                       !- Construction Name