
OS:Version,
  {483342c3-1d99-4820-bdb5-f0eadccd28ce}, !- Handle
  0.10.0;                                 !- Version Identifier

OS:BuildingStory,
  {b7bc8dd1-d19f-4a3f-a2e1-a637298a71a1}, !- Handle
  Story 1,                                !- Name
  0,                                      !- Nominal Z Coordinate {m}
  4,                                      !- Nominal Floor to Floor Height {m}
  ,                                       !- Default Construction Set Name
  ,                                       !- Default Schedule Set Name
  ;                                       !- Group Rendering Name

OS:Space,
  {77c4969f-d24a-4db9-acc2-f77d3be88afd}, !- Handle
  Story 1 West Perimeter Space,           !- Name
  ,                                       !- Space Type Name
  ,                                       !- Default Construction Set Name
  ,                                       !- Default Schedule Set Name
  -0,                                     !- Direction of Relative North {deg}
  0,                                      !- X Origin {m}
  0,                                      !- Y Origin {m}
  0,                                      !- Z Origin {m}
  {b7bc8dd1-d19f-4a3f-a2e1-a637298a71a1}, !- Building Story Name
  {68e59920-cdda-44aa-973a-3071be9d373b}; !- Thermal Zone Name

OS:Surface,
  {5d7bb209-1958-45c6-b198-81ab58cff3c8}, !- Handle
  Surface 1,                              !- Name
  Floor,                                  !- Surface Type
  ,                                       !- Construction Name
  {77c4969f-d24a-4db9-acc2-f77d3be88afd}, !- Space Name
  Ground,                                 !- Outside Boundary Condition
  ,                                       !- Outside Boundary Condition Object
  NoSun,                                  !- Sun Exposure
  NoWind,                                 !- Wind Exposure
  ,                                       !- View Factor to Ground
  ,                                       !- Number of Vertices
  0, 0, 0,                                !- X,Y,Z Vertex 1 {m}
  0, 18.2482875908947, 0,                 !- X,Y,Z Vertex 2 {m}
  3, 15.2482875908947, 0,                 !- X,Y,Z Vertex 3 {m}
  3, 3, 0;                                !- X,Y,Z Vertex 4 {m}

OS:Surface,
  {090d3da5-fe9d-447e-b4c8-473c8fd33fa9}, !- Handle
  Surface 2,                              !- Name
  Wall,                                   !- Surface Type
  ,                                       !- Construction Name
  {77c4969f-d24a-4db9-acc2-f77d3be88afd}, !- Space Name
  Outdoors,                               !- Outside Boundary Condition
  ,                                       !- Outside Boundary Condition Object
  SunExposed,                             !- Sun Exposure
  WindExposed,                            !- Wind Exposure
  ,                                       !- View Factor to Ground
  ,                                       !- Number of Vertices
  0, 18.2482875908947, 4,                 !- X,Y,Z Vertex 1 {m}
  0, 18.2482875908947, 0,                 !- X,Y,Z Vertex 2 {m}
  0, 0, 0,                                !- X,Y,Z Vertex 3 {m}
  0, 0, 4;                                !- X,Y,Z Vertex 4 {m}

OS:Surface,
  {2f53ef04-5ce8-464c-aa5a-4bddee605a96}, !- Handle
  Surface 3,                              !- Name
  Wall,                                   !- Surface Type
  ,                                       !- Construction Name
  {77c4969f-d24a-4db9-acc2-f77d3be88afd}, !- Space Name
  Surface,                                !- Outside Boundary Condition
  {4d2930cb-cc54-4761-8dd3-ebf389ac1e69}, !- Outside Boundary Condition Object
  NoSun,                                  !- Sun Exposure
  NoWind,                                 !- Wind Exposure
  ,                                       !- View Factor to Ground
  ,                                       !- Number of Vertices
  3, 15.2482875908947, 4,                 !- X,Y,Z Vertex 1 {m}
  3, 15.2482875908947, 0,                 !- X,Y,Z Vertex 2 {m}
  0, 18.2482875908947, 0,                 !- X,Y,Z Vertex 3 {m}
  0, 18.2482875908947, 4;                 !- X,Y,Z Vertex 4 {m}

OS:Surface,
  {cf0cefd8-576b-4f81-b5bc-26ab8bc1bada}, !- Handle
  Surface 4,                              !- Name
  Wall,                                   !- Surface Type
  ,                                       !- Construction Name
  {77c4969f-d24a-4db9-acc2-f77d3be88afd}, !- Space Name
  Surface,                                !- Outside Boundary Condition
  {e44f172b-db54-4819-b0c8-91ac71d14036}, !- Outside Boundary Condition Object
  NoSun,                                  !- Sun Exposure
  NoWind,                                 !- Wind Exposure
  ,                                       !- View Factor to Ground
  ,                                       !- Number of Vertices
  3, 3, 4,                                !- X,Y,Z Vertex 1 {m}
  3, 3, 0,                                !- X,Y,Z Vertex 2 {m}
  3, 15.2482875908947, 0,                 !- X,Y,Z Vertex 3 {m}
  3, 15.2482875908947, 4;                 !- X,Y,Z Vertex 4 {m}

OS:Surface,
  {d840529e-d002-434e-9388-4f6b4bc64b44}, !- Handle
  Surface 5,                              !- Name
  Wall,                                   !- Surface Type
  ,                                       !- Construction Name
  {77c4969f-d24a-4db9-acc2-f77d3be88afd}, !- Space Name
  Surface,                                !- Outside Boundary Condition
  {1a1d87e6-af18-4f55-9d42-5a527e69daa2}, !- Outside Boundary Condition Object
  NoSun,                                  !- Sun Exposure
  NoWind,                                 !- Wind Exposure
  ,                                       !- View Factor to Ground
  ,                                       !- Number of Vertices
  0, 0, 4,                                !- X,Y,Z Vertex 1 {m}
  0, 0, 0,                                !- X,Y,Z Vertex 2 {m}
  3, 3, 0,                                !- X,Y,Z Vertex 3 {m}
  3, 3, 4;                                !- X,Y,Z Vertex 4 {m}

OS:Surface,
  {6069ad63-fe6d-4017-9d32-deeae1ddef87}, !- Handle
  Surface 6,                              !- Name
  RoofCeiling,                            !- Surface Type
  ,                                       !- Construction Name
  {77c4969f-d24a-4db9-acc2-f77d3be88afd}, !- Space Name
  Surface,                                !- Outside Boundary Condition
  {9cdc7e99-8915-409d-bfc4-f758778f0326}, !- Outside Boundary Condition Object
  NoSun,                                  !- Sun Exposure
  NoWind,                                 !- Wind Exposure
  ,                                       !- View Factor to Ground
  ,                                       !- Number of Vertices
  3, 3, 4,                                !- X,Y,Z Vertex 1 {m}
  3, 15.2482875908947, 4,                 !- X,Y,Z Vertex 2 {m}
  0, 18.2482875908947, 4,                 !- X,Y,Z Vertex 3 {m}
  0, 0, 4;                                !- X,Y,Z Vertex 4 {m}

OS:Space,
  {822bca8c-b8bb-49c9-85fd-ad35efcf44b7}, !- Handle
  Story 1 North Perimeter Space,          !- Name
  ,                                       !- Space Type Name
  ,                                       !- Default Construction Set Name
  ,                                       !- Default Schedule Set Name
  -0,                                     !- Direction of Relative North {deg}
  3,                                      !- X Origin {m}
  15.2482875908947,                       !- Y Origin {m}
  0,                                      !- Z Origin {m}
  {b7bc8dd1-d19f-4a3f-a2e1-a637298a71a1}, !- Building Story Name
  {af5f06a6-ef5e-483b-8503-ca05a4aaf6fb}; !- Thermal Zone Name

OS:Surface,
  {72ffefb6-91f7-4fa2-869c-840e27b23408}, !- Handle
  Surface 7,                              !- Name
  Floor,                                  !- Surface Type
  ,                                       !- Construction Name
  {822bca8c-b8bb-49c9-85fd-ad35efcf44b7}, !- Space Name
  Ground,                                 !- Outside Boundary Condition
  ,                                       !- Outside Boundary Condition Object
  NoSun,                                  !- Sun Exposure
  NoWind,                                 !- Wind Exposure
  ,                                       !- View Factor to Ground
  ,                                       !- Number of Vertices
  -3, 3.00000000000004, 0,                !- X,Y,Z Vertex 1 {m}
  15.2482875908947, 3.00000000000004, 0,  !- X,Y,Z Vertex 2 {m}
  12.2482875908947, 4.08562073062058e-14, 0, !- X,Y,Z Vertex 3 {m}
  0, 4.08562073062058e-14, 0;             !- X,Y,Z Vertex 4 {m}

OS:Surface,
  {f7e45124-8de2-4ae1-ade7-e5c90a9dcedb}, !- Handle
  Surface 8,                              !- Name
  Wall,                                   !- Surface Type
  ,                                       !- Construction Name
  {822bca8c-b8bb-49c9-85fd-ad35efcf44b7}, !- Space Name
  Outdoors,                               !- Outside Boundary Condition
  ,                                       !- Outside Boundary Condition Object
  SunExposed,                             !- Sun Exposure
  WindExposed,                            !- Wind Exposure
  ,                                       !- View Factor to Ground
  ,                                       !- Number of Vertices
  15.2482875908947, 3.00000000000004, 4,  !- X,Y,Z Vertex 1 {m}
  15.2482875908947, 3.00000000000004, 0,  !- X,Y,Z Vertex 2 {m}
  -3, 3.00000000000004, 0,                !- X,Y,Z Vertex 3 {m}
  -3, 3.00000000000004, 4;                !- X,Y,Z Vertex 4 {m}

OS:Surface,
  {34ccf144-3a0b-43ba-9b45-a13956c97240}, !- Handle
  Surface 9,                              !- Name
  Wall,                                   !- Surface Type
  ,                                       !- Construction Name
  {822bca8c-b8bb-49c9-85fd-ad35efcf44b7}, !- Space Name
  Surface,                                !- Outside Boundary Condition
  {e2c4a288-6fe2-4ddb-a8d6-32830d322227}, !- Outside Boundary Condition Object
  NoSun,                                  !- Sun Exposure
  NoWind,                                 !- Wind Exposure
  ,                                       !- View Factor to Ground
  ,                                       !- Number of Vertices
  12.2482875908947, 4.08562073062058e-14, 4, !- X,Y,Z Vertex 1 {m}
  12.2482875908947, 4.08562073062058e-14, 0, !- X,Y,Z Vertex 2 {m}
  15.2482875908947, 3.00000000000004, 0,  !- X,Y,Z Vertex 3 {m}
  15.2482875908947, 3.00000000000004, 4;  !- X,Y,Z Vertex 4 {m}

OS:Surface,
  {dab650a3-71f0-4e98-8955-2b65c33b8b33}, !- Handle
  Surface 10,                             !- Name
  Wall,                                   !- Surface Type
  ,                                       !- Construction Name
  {822bca8c-b8bb-49c9-85fd-ad35efcf44b7}, !- Space Name
  Surface,                                !- Outside Boundary Condition
  {c9a64f39-1a8e-4c8b-943d-6b2d9ff0e050}, !- Outside Boundary Condition Object
  NoSun,                                  !- Sun Exposure
  NoWind,                                 !- Wind Exposure
  ,                                       !- View Factor to Ground
  ,                                       !- Number of Vertices
  0, 4.08562073062058e-14, 4,             !- X,Y,Z Vertex 1 {m}
  0, 4.08562073062058e-14, 0,             !- X,Y,Z Vertex 2 {m}
  12.2482875908947, 4.08562073062058e-14, 0, !- X,Y,Z Vertex 3 {m}
  12.2482875908947, 4.08562073062058e-14, 4; !- X,Y,Z Vertex 4 {m}

OS:Surface,
  {4d2930cb-cc54-4761-8dd3-ebf389ac1e69}, !- Handle
  Surface 11,                             !- Name
  Wall,                                   !- Surface Type
  ,                                       !- Construction Name
  {822bca8c-b8bb-49c9-85fd-ad35efcf44b7}, !- Space Name
  Surface,                                !- Outside Boundary Condition
  {2f53ef04-5ce8-464c-aa5a-4bddee605a96}, !- Outside Boundary Condition Object
  NoSun,                                  !- Sun Exposure
  NoWind,                                 !- Wind Exposure
  ,                                       !- View Factor to Ground
  ,                                       !- Number of Vertices
  -3, 3.00000000000004, 4,                !- X,Y,Z Vertex 1 {m}
  -3, 3.00000000000004, 0,                !- X,Y,Z Vertex 2 {m}
  0, 4.08562073062058e-14, 0,             !- X,Y,Z Vertex 3 {m}
  0, 4.08562073062058e-14, 4;             !- X,Y,Z Vertex 4 {m}

OS:Surface,
  {77588765-8eea-46b2-a281-1765fdcd9d1f}, !- Handle
  Surface 12,                             !- Name
  RoofCeiling,                            !- Surface Type
  ,                                       !- Construction Name
  {822bca8c-b8bb-49c9-85fd-ad35efcf44b7}, !- Space Name
  Surface,                                !- Outside Boundary Condition
  {318b2770-1792-45e3-b69f-e1891c734c0e}, !- Outside Boundary Condition Object
  NoSun,                                  !- Sun Exposure
  NoWind,                                 !- Wind Exposure
  ,                                       !- View Factor to Ground
  ,                                       !- Number of Vertices
  0, 4.08562073062058e-14, 4,             !- X,Y,Z Vertex 1 {m}
  12.2482875908947, 4.08562073062058e-14, 4, !- X,Y,Z Vertex 2 {m}
  15.2482875908947, 3.00000000000004, 4,  !- X,Y,Z Vertex 3 {m}
  -3, 3.00000000000004, 4;                !- X,Y,Z Vertex 4 {m}

OS:Space,
  {31806e2d-1647-48a6-8ce0-cb0480165b59}, !- Handle
  Story 1 East Perimeter Space,           !- Name
  ,                                       !- Space Type Name
  ,                                       !- Default Construction Set Name
  ,                                       !- Default Schedule Set Name
  -0,                                     !- Direction of Relative North {deg}
  15.2482875908947,                       !- X Origin {m}
  3,                                      !- Y Origin {m}
  0,                                      !- Z Origin {m}
  {b7bc8dd1-d19f-4a3f-a2e1-a637298a71a1}, !- Building Story Name
  {2db088a0-9f4a-4b6e-bbc7-b2725688fdda}; !- Thermal Zone Name

OS:Surface,
  {f7c5d1b1-e105-41b4-a44c-84a15594d184}, !- Handle
  Surface 13,                             !- Name
  Floor,                                  !- Surface Type
  ,                                       !- Construction Name
  {31806e2d-1647-48a6-8ce0-cb0480165b59}, !- Space Name
  Ground,                                 !- Outside Boundary Condition
  ,                                       !- Outside Boundary Condition Object
  NoSun,                                  !- Sun Exposure
  NoWind,                                 !- Wind Exposure
  ,                                       !- View Factor to Ground
  ,                                       !- Number of Vertices
  3.00000000000004, 15.2482875908947, 0,  !- X,Y,Z Vertex 1 {m}
  3.00000000000004, -3, 0,                !- X,Y,Z Vertex 2 {m}
  4.08562073062058e-14, 0, 0,             !- X,Y,Z Vertex 3 {m}
  4.08562073062058e-14, 12.2482875908947, 0; !- X,Y,Z Vertex 4 {m}

OS:Surface,
  {02d707e5-03e4-41f4-9c7f-ef450e8d2b9f}, !- Handle
  Surface 14,                             !- Name
  Wall,                                   !- Surface Type
  ,                                       !- Construction Name
  {31806e2d-1647-48a6-8ce0-cb0480165b59}, !- Space Name
  Outdoors,                               !- Outside Boundary Condition
  ,                                       !- Outside Boundary Condition Object
  SunExposed,                             !- Sun Exposure
  WindExposed,                            !- Wind Exposure
  ,                                       !- View Factor to Ground
  ,                                       !- Number of Vertices
  3.00000000000004, -3, 4,                !- X,Y,Z Vertex 1 {m}
  3.00000000000004, -3, 0,                !- X,Y,Z Vertex 2 {m}
  3.00000000000004, 15.2482875908947, 0,  !- X,Y,Z Vertex 3 {m}
  3.00000000000004, 15.2482875908947, 4;  !- X,Y,Z Vertex 4 {m}

OS:Surface,
  {52aab6d5-9e85-41ae-9507-3ff6c11f21ef}, !- Handle
  Surface 15,                             !- Name
  Wall,                                   !- Surface Type
  ,                                       !- Construction Name
  {31806e2d-1647-48a6-8ce0-cb0480165b59}, !- Space Name
  Surface,                                !- Outside Boundary Condition
  {5eee43f6-0da6-410e-bc4b-fcde9dcca44b}, !- Outside Boundary Condition Object
  NoSun,                                  !- Sun Exposure
  NoWind,                                 !- Wind Exposure
  ,                                       !- View Factor to Ground
  ,                                       !- Number of Vertices
  4.08562073062058e-14, 0, 4,             !- X,Y,Z Vertex 1 {m}
  4.08562073062058e-14, 0, 0,             !- X,Y,Z Vertex 2 {m}
  3.00000000000004, -3, 0,                !- X,Y,Z Vertex 3 {m}
  3.00000000000004, -3, 4;                !- X,Y,Z Vertex 4 {m}

OS:Surface,
  {bff3a0ce-2a80-4e6d-a69d-e96ae8fecfe3}, !- Handle
  Surface 16,                             !- Name
  Wall,                                   !- Surface Type
  ,                                       !- Construction Name
  {31806e2d-1647-48a6-8ce0-cb0480165b59}, !- Space Name
  Surface,                                !- Outside Boundary Condition
  {4acc209b-508f-4dee-ad31-3f40bc695b5f}, !- Outside Boundary Condition Object
  NoSun,                                  !- Sun Exposure
  NoWind,                                 !- Wind Exposure
  ,                                       !- View Factor to Ground
  ,                                       !- Number of Vertices
  4.08562073062058e-14, 12.2482875908947, 4, !- X,Y,Z Vertex 1 {m}
  4.08562073062058e-14, 12.2482875908947, 0, !- X,Y,Z Vertex 2 {m}
  4.08562073062058e-14, 0, 0,             !- X,Y,Z Vertex 3 {m}
  4.08562073062058e-14, 0, 4;             !- X,Y,Z Vertex 4 {m}

OS:Surface,
  {e2c4a288-6fe2-4ddb-a8d6-32830d322227}, !- Handle
  Surface 17,                             !- Name
  Wall,                                   !- Surface Type
  ,                                       !- Construction Name
  {31806e2d-1647-48a6-8ce0-cb0480165b59}, !- Space Name
  Surface,                                !- Outside Boundary Condition
  {34ccf144-3a0b-43ba-9b45-a13956c97240}, !- Outside Boundary Condition Object
  NoSun,                                  !- Sun Exposure
  NoWind,                                 !- Wind Exposure
  ,                                       !- View Factor to Ground
  ,                                       !- Number of Vertices
  3.00000000000004, 15.2482875908947, 4,  !- X,Y,Z Vertex 1 {m}
  3.00000000000004, 15.2482875908947, 0,  !- X,Y,Z Vertex 2 {m}
  4.08562073062058e-14, 12.2482875908947, 0, !- X,Y,Z Vertex 3 {m}
  4.08562073062058e-14, 12.2482875908947, 4; !- X,Y,Z Vertex 4 {m}

OS:Surface,
  {a2ece2b2-fb7a-449d-bcca-6848c3e8b06f}, !- Handle
  Surface 18,                             !- Name
  RoofCeiling,                            !- Surface Type
  ,                                       !- Construction Name
  {31806e2d-1647-48a6-8ce0-cb0480165b59}, !- Space Name
  Surface,                                !- Outside Boundary Condition
  {0421bed9-2ac2-4380-bb51-654bb03669b4}, !- Outside Boundary Condition Object
  NoSun,                                  !- Sun Exposure
  NoWind,                                 !- Wind Exposure
  ,                                       !- View Factor to Ground
  ,                                       !- Number of Vertices
  4.08562073062058e-14, 12.2482875908947, 4, !- X,Y,Z Vertex 1 {m}
  4.08562073062058e-14, 0, 4,             !- X,Y,Z Vertex 2 {m}
  3.00000000000004, -3, 4,                !- X,Y,Z Vertex 3 {m}
  3.00000000000004, 15.2482875908947, 4;  !- X,Y,Z Vertex 4 {m}

OS:Space,
  {17294e02-6223-4bd1-9fe4-15beb7f51ef5}, !- Handle
  Story 1 South Perimeter Space,          !- Name
  ,                                       !- Space Type Name
  ,                                       !- Default Construction Set Name
  ,                                       !- Default Schedule Set Name
  -0,                                     !- Direction of Relative North {deg}
  0,                                      !- X Origin {m}
  0,                                      !- Y Origin {m}
  0,                                      !- Z Origin {m}
  {b7bc8dd1-d19f-4a3f-a2e1-a637298a71a1}, !- Building Story Name
  {990e1f48-a4cc-426c-8caf-58e34fb915d2}; !- Thermal Zone Name

OS:Surface,
  {b303ed24-cc76-48b8-8da0-1d9b0723a78c}, !- Handle
  Surface 19,                             !- Name
  Floor,                                  !- Surface Type
  ,                                       !- Construction Name
  {17294e02-6223-4bd1-9fe4-15beb7f51ef5}, !- Space Name
  Ground,                                 !- Outside Boundary Condition
  ,                                       !- Outside Boundary Condition Object
  NoSun,                                  !- Sun Exposure
  NoWind,                                 !- Wind Exposure
  ,                                       !- View Factor to Ground
  ,                                       !- Number of Vertices
  18.2482875908947, 0, 0,                 !- X,Y,Z Vertex 1 {m}
  0, 0, 0,                                !- X,Y,Z Vertex 2 {m}
  3, 3, 0,                                !- X,Y,Z Vertex 3 {m}
  15.2482875908947, 3, 0;                 !- X,Y,Z Vertex 4 {m}

OS:Surface,
  {68cac45f-ef17-4815-80bf-c5023db54caa}, !- Handle
  Surface 20,                             !- Name
  Wall,                                   !- Surface Type
  ,                                       !- Construction Name
  {17294e02-6223-4bd1-9fe4-15beb7f51ef5}, !- Space Name
  Outdoors,                               !- Outside Boundary Condition
  ,                                       !- Outside Boundary Condition Object
  SunExposed,                             !- Sun Exposure
  WindExposed,                            !- Wind Exposure
  ,                                       !- View Factor to Ground
  ,                                       !- Number of Vertices
  0, 0, 4,                                !- X,Y,Z Vertex 1 {m}
  0, 0, 0,                                !- X,Y,Z Vertex 2 {m}
  18.2482875908947, 0, 0,                 !- X,Y,Z Vertex 3 {m}
  18.2482875908947, 0, 4;                 !- X,Y,Z Vertex 4 {m}

OS:Surface,
  {1a1d87e6-af18-4f55-9d42-5a527e69daa2}, !- Handle
  Surface 21,                             !- Name
  Wall,                                   !- Surface Type
  ,                                       !- Construction Name
  {17294e02-6223-4bd1-9fe4-15beb7f51ef5}, !- Space Name
  Surface,                                !- Outside Boundary Condition
  {d840529e-d002-434e-9388-4f6b4bc64b44}, !- Outside Boundary Condition Object
  NoSun,                                  !- Sun Exposure
  NoWind,                                 !- Wind Exposure
  ,                                       !- View Factor to Ground
  ,                                       !- Number of Vertices
  3, 3, 4,                                !- X,Y,Z Vertex 1 {m}
  3, 3, 0,                                !- X,Y,Z Vertex 2 {m}
  0, 0, 0,                                !- X,Y,Z Vertex 3 {m}
  0, 0, 4;                                !- X,Y,Z Vertex 4 {m}

OS:Surface,
  {079469f3-0247-46d6-ba3d-6cfb9166145c}, !- Handle
  Surface 22,                             !- Name
  Wall,                                   !- Surface Type
  ,                                       !- Construction Name
  {17294e02-6223-4bd1-9fe4-15beb7f51ef5}, !- Space Name
  Surface,                                !- Outside Boundary Condition
  {a6997d3d-aed7-4737-be4a-473ddd979a99}, !- Outside Boundary Condition Object
  NoSun,                                  !- Sun Exposure
  NoWind,                                 !- Wind Exposure
  ,                                       !- View Factor to Ground
  ,                                       !- Number of Vertices
  15.2482875908947, 3, 4,                 !- X,Y,Z Vertex 1 {m}
  15.2482875908947, 3, 0,                 !- X,Y,Z Vertex 2 {m}
  3, 3, 0,                                !- X,Y,Z Vertex 3 {m}
  3, 3, 4;                                !- X,Y,Z Vertex 4 {m}

OS:Surface,
  {5eee43f6-0da6-410e-bc4b-fcde9dcca44b}, !- Handle
  Surface 23,                             !- Name
  Wall,                                   !- Surface Type
  ,                                       !- Construction Name
  {17294e02-6223-4bd1-9fe4-15beb7f51ef5}, !- Space Name
  Surface,                                !- Outside Boundary Condition
  {52aab6d5-9e85-41ae-9507-3ff6c11f21ef}, !- Outside Boundary Condition Object
  NoSun,                                  !- Sun Exposure
  NoWind,                                 !- Wind Exposure
  ,                                       !- View Factor to Ground
  ,                                       !- Number of Vertices
  18.2482875908947, 0, 4,                 !- X,Y,Z Vertex 1 {m}
  18.2482875908947, 0, 0,                 !- X,Y,Z Vertex 2 {m}
  15.2482875908947, 3, 0,                 !- X,Y,Z Vertex 3 {m}
  15.2482875908947, 3, 4;                 !- X,Y,Z Vertex 4 {m}

OS:Surface,
  {bef17a23-203b-434f-b427-705c335afe02}, !- Handle
  Surface 24,                             !- Name
  RoofCeiling,                            !- Surface Type
  ,                                       !- Construction Name
  {17294e02-6223-4bd1-9fe4-15beb7f51ef5}, !- Space Name
  Surface,                                !- Outside Boundary Condition
  {2c3078b0-b5ab-4d03-9627-7a2040050eab}, !- Outside Boundary Condition Object
  NoSun,                                  !- Sun Exposure
  NoWind,                                 !- Wind Exposure
  ,                                       !- View Factor to Ground
  ,                                       !- Number of Vertices
  15.2482875908947, 3, 4,                 !- X,Y,Z Vertex 1 {m}
  3, 3, 4,                                !- X,Y,Z Vertex 2 {m}
  0, 0, 4,                                !- X,Y,Z Vertex 3 {m}
  18.2482875908947, 0, 4;                 !- X,Y,Z Vertex 4 {m}

OS:Space,
  {516b856a-3537-462f-a0ac-75e51cbd78b2}, !- Handle
  Story 1 Core Space,                     !- Name
  ,                                       !- Space Type Name
  ,                                       !- Default Construction Set Name
  ,                                       !- Default Schedule Set Name
  -0,                                     !- Direction of Relative North {deg}
  3,                                      !- X Origin {m}
  3,                                      !- Y Origin {m}
  0,                                      !- Z Origin {m}
  {b7bc8dd1-d19f-4a3f-a2e1-a637298a71a1}, !- Building Story Name
  {3a08b6c9-1f62-4adb-9a22-04b80b9556b4}; !- Thermal Zone Name

OS:Surface,
  {59b10c76-de7b-4000-8c1f-ee80d046cc17}, !- Handle
  Surface 25,                             !- Name
  Floor,                                  !- Surface Type
  ,                                       !- Construction Name
  {516b856a-3537-462f-a0ac-75e51cbd78b2}, !- Space Name
  Ground,                                 !- Outside Boundary Condition
  ,                                       !- Outside Boundary Condition Object
  NoSun,                                  !- Sun Exposure
  NoWind,                                 !- Wind Exposure
  ,                                       !- View Factor to Ground
  ,                                       !- Number of Vertices
  0, 0, 0,                                !- X,Y,Z Vertex 1 {m}
  0, 12.2482875908947, 0,                 !- X,Y,Z Vertex 2 {m}
  12.2482875908947, 12.2482875908947, 0,  !- X,Y,Z Vertex 3 {m}
  12.2482875908947, 0, 0;                 !- X,Y,Z Vertex 4 {m}

OS:Surface,
  {e44f172b-db54-4819-b0c8-91ac71d14036}, !- Handle
  Surface 26,                             !- Name
  Wall,                                   !- Surface Type
  ,                                       !- Construction Name
  {516b856a-3537-462f-a0ac-75e51cbd78b2}, !- Space Name
  Surface,                                !- Outside Boundary Condition
  {cf0cefd8-576b-4f81-b5bc-26ab8bc1bada}, !- Outside Boundary Condition Object
  NoSun,                                  !- Sun Exposure
  NoWind,                                 !- Wind Exposure
  ,                                       !- View Factor to Ground
  ,                                       !- Number of Vertices
  0, 12.2482875908947, 4,                 !- X,Y,Z Vertex 1 {m}
  0, 12.2482875908947, 0,                 !- X,Y,Z Vertex 2 {m}
  0, 0, 0,                                !- X,Y,Z Vertex 3 {m}
  0, 0, 4;                                !- X,Y,Z Vertex 4 {m}

OS:Surface,
  {c9a64f39-1a8e-4c8b-943d-6b2d9ff0e050}, !- Handle
  Surface 27,                             !- Name
  Wall,                                   !- Surface Type
  ,                                       !- Construction Name
  {516b856a-3537-462f-a0ac-75e51cbd78b2}, !- Space Name
  Surface,                                !- Outside Boundary Condition
  {dab650a3-71f0-4e98-8955-2b65c33b8b33}, !- Outside Boundary Condition Object
  NoSun,                                  !- Sun Exposure
  NoWind,                                 !- Wind Exposure
  ,                                       !- View Factor to Ground
  ,                                       !- Number of Vertices
  12.2482875908947, 12.2482875908947, 4,  !- X,Y,Z Vertex 1 {m}
  12.2482875908947, 12.2482875908947, 0,  !- X,Y,Z Vertex 2 {m}
  0, 12.2482875908947, 0,                 !- X,Y,Z Vertex 3 {m}
  0, 12.2482875908947, 4;                 !- X,Y,Z Vertex 4 {m}

OS:Surface,
  {4acc209b-508f-4dee-ad31-3f40bc695b5f}, !- Handle
  Surface 28,                             !- Name
  Wall,                                   !- Surface Type
  ,                                       !- Construction Name