
OS:Version,
  {a14cffcc-0bad-450a-ac70-9ac2afbc7cd9}, !- Handle
  0.10.0;                                 !- Version Identifier

OS:BuildingStory,
  {de05e8cb-deec-42eb-9100-e44ef0505ba9}, !- Handle
  Story 1,                                !- Name
  0,                                      !- Nominal Z Coordinate {m}
  4,                                      !- Nominal Floor to Floor Height {m}
  ,                                       !- Default Construction Set Name
  ,                                       !- Default Schedule Set Name
  ;                                       !- Group Rendering Name

OS:Space,
  {03fa9126-289f-4411-a4ec-33ebfcb16b6a}, !- Handle
  Story 1 West Perimeter Space,           !- Name
  ,                                       !- Space Type Name
  ,                                       !- Default Construction Set Name
  ,                                       !- Default Schedule Set Name
  -0,                                     !- Direction of Relative North {deg}
  0,                                      !- X Origin {m}
  0,                                      !- Y Origin {m}
  0,                                      !- Z Origin {m}
  {de05e8cb-deec-42eb-9100-e44ef0505ba9}, !- Building Story Name
  {dd9a756f-dcd2-40a7-af4f-acc30a3216b0}; !- Thermal Zone Name

OS:Surface,
  {4217ea48-462a-4951-94f3-eccc223f90af}, !- Handle
  Surface 1,                              !- Name
  Floor,                                  !- Surface Type
  ,                                       !- Construction Name
  {03fa9126-289f-4411-a4ec-33ebfcb16b6a}, !- Space Name
  Ground,                                 !- Outside Boundary Condition
  ,                                       !- Outside Boundary Condition Object
  NoSun,                                  !- Sun Exposure
  NoWind,                                 !- Wind Exposure
  ,                                       !- View Factor to Ground
  ,                                       !- Number of Vertices
  0, 0, 0,                                !- X,Y,Z Vertex 1 {m}
  0, 21.4242852856285, 0,                 !- X,Y,Z Vertex 2 {m}
  3, 18.4242852856285, 0,                 !- X,Y,Z Vertex 3 {m}
  3, 3, 0;                                !- X,Y,Z Vertex 4 {m}

OS:Surface,
  {b1290cb1-8ecd-4600-8c04-3784161fe089}, !- Handle
  Surface 2,                              !- Name
  Wall,                                   !- Surface Type
  ,                                       !- Construction Name
  {03fa9126-289f-4411-a4ec-33ebfcb16b6a}, !- Space Name
  Outdoors,                               !- Outside Boundary Condition
  ,                                       !- Outside Boundary Condition Object
  SunExposed,                             !- Sun Exposure
  WindExposed,                            !- Wind Exposure
  ,                                       !- View Factor to Ground
  ,                                       !- Number of Vertices
  0, 21.4242852856285, 4,                 !- X,Y,Z Vertex 1 {m}
  0, 21.4242852856285, 0,                 !- X,Y,Z Vertex 2 {m}
  0, 0, 0,                                !- X,Y,Z Vertex 3 {m}
  0, 0, 4;                                !- X,Y,Z Vertex 4 {m}

OS:Surface,
  {e7a54196-d6b4-480c-8821-e9cc044edc36}, !- Handle
  Surface 3,                              !- Name
  Wall,                                   !- Surface Type
  ,                                       !- Construction Name
  {03fa9126-289f-4411-a4ec-33ebfcb16b6a}, !- Space Name
  Surface,                                !- Outside Boundary Condition
  {d5bb01c3-23ac-4560-b1ba-f76a781f9147}, !- Outside Boundary Condition Object
  NoSun,                                  !- Sun Exposure
  NoWind,                                 !- Wind Exposure
  ,                                       !- View Factor to Ground
  ,                                       !- Number of Vertices
  3, 18.4242852856285, 4,                 !- X,Y,Z Vertex 1 {m}
  3, 18.4242852856285, 0,                 !- X,Y,Z Vertex 2 {m}
  0, 21.4242852856285, 0,                 !- X,Y,Z Vertex 3 {m}
  0, 21.4242852856285, 4;                 !- X,Y,Z Vertex 4 {m}

OS:Surface,
  {711a8da9-d5b2-4bdb-945b-0e68df219d23}, !- Handle
  Surface 4,                              !- Name
  Wall,                                   !- Surface Type
  ,                                       !- Construction Name
  {03fa9126-289f-4411-a4ec-33ebfcb16b6a}, !- Space Name
  Surface,                                !- Outside Boundary Condition
  {131001d2-01aa-485f-a43a-bb1fba7e9c08}, !- Outside Boundary Condition Object
  NoSun,                                  !- Sun Exposure
  NoWind,                                 !- Wind Exposure
  ,                                       !- View Factor to Ground
  ,                                       !- Number of Vertices
  3, 3, 4,                                !- X,Y,Z Vertex 1 {m}
  3, 3, 0,                                !- X,Y,Z Vertex 2 {m}
  3, 18.4242852856285, 0,                 !- X,Y,Z Vertex 3 {m}
  3, 18.4242852856285, 4;                 !- X,Y,Z Vertex 4 {m}

OS:Surface,
  {ea4a4770-0224-4994-adfe-ede2597721f4}, !- Handle
  Surface 5,                              !- Name
  Wall,                                   !- Surface Type
  ,                                       !- Construction Name
  {03fa9126-289f-4411-a4ec-33ebfcb16b6a}, !- Space Name
  Surface,                                !- Outside Boundary Condition
  {7af2096e-775c-4b84-9565-7d3673b5c2f7}, !- Outside Boundary Condition Object
  NoSun,                                  !- Sun Exposure
  NoWind,                                 !- Wind Exposure
  ,                                       !- View Factor to Ground
  ,                                       !- Number of Vertices
  0, 0, 4,                                !- X,Y,Z Vertex 1 {m}
  0, 0, 0,                                !- X,Y,Z Vertex 2 {m}
  3, 3, 0,                                !- X,Y,Z Vertex 3 {m}
  3, 3, 4;                                !- X,Y,Z Vertex 4 {m}

OS:Surface,
  {ef1937d9-27cf-462b-b65b-a7de9dc7e3a0}, !- Handle
  Surface 6,                              !- Name
  RoofCeiling,                            !- Surface Type
  ,                                       !- Construction Name
  {03fa9126-289f-4411-a4ec-33ebfcb16b6a}, !- Space Name
  Outdoors,                               !- Outside Boundary Condition
  ,                                       !- Outside Boundary Condition Object
  SunExposed,                             !- Sun Exposure
  WindExposed,                            !- Wind Exposure
  ,                                       !- View Factor to Ground
  ,                                       !- Number of Vertices
  3, 3, 4,                                !- X,Y,Z Vertex 1 {m}
  3, 18.4242852856285, 4,                 !- X,Y,Z Vertex 2 {m}
  0, 21.4242852856285, 4,                 !- X,Y,Z Vertex 3 {m}
  0, 0, 4;                                !- X,Y,Z Vertex 4 {m}

OS:Space,
  {25ed44ce-d2e6-4385-aff2-e582bd6c0e88}, !- Handle
  Story 1 North Perimeter Space,          !- Name
  ,                                       !- Space Type Name
  ,                                       !- Default Construction Set Name
  ,                                       !- Default Schedule Set Name
  -0,                                     !- Direction of Relative North {deg}
  3,                                      !- X Origin {m}
  18.4242852856285,                       !- Y Origin {m}
  0,                                      !- Z Origin {m}
  {de05e8cb-deec-42eb-9100-e44ef0505ba9}, !- Building Story Name
  {bd93e49b-2d10-4d38-b238-60475f77ff11}; !- Thermal Zone Name

OS:Surface,
  {b5e5b4f5-dd1b-4a31-b536-280476b773c2}, !- Handle
  Surface 7,                              !- Name
  Floor,                                  !- Surface Type
  ,                                       !- Construction Name
  {25ed44ce-d2e6-4385-aff2-e582bd6c0e88}, !- Space Name
  Ground,                                 !- Outside Boundary Condition
  ,                                       !- Outside Boundary Condition Object
  NoSun,                                  !- Sun Exposure
  NoWind,                                 !- Wind Exposure
  ,                                       !- View Factor to Ground
  ,                                       !- Number of Vertices
  -3, 2.99999999999995, 0,                !- X,Y,Z Vertex 1 {m}
  18.4242852856285, 2.99999999999995, 0,  !- X,Y,Z Vertex 2 {m}
  15.4242852856285, -4.9737991503207e-14, 0, !- X,Y,Z Vertex 3 {m}
  0, -4.9737991503207e-14, 0;             !- X,Y,Z Vertex 4 {m}

OS:Surface,
  {b0c38835-a497-48f6-8a25-5161df26020d}, !- Handle
  Surface 8,                              !- Name
  Wall,                                   !- Surface Type
  ,                                       !- Construction Name
  {25ed44ce-d2e6-4385-aff2-e582bd6c0e88}, !- Space Name
  Outdoors,                               !- Outside Boundary Condition
  ,                                       !- Outside Boundary Condition Object
  SunExposed,                             !- Sun Exposure
  WindExposed,                            !- Wind Exposure
  ,                                       !- View Factor to Ground
  ,                                       !- Number of Vertices
  18.4242852856285, 2.99999999999995, 4,  !- X,Y,Z Vertex 1 {m}
  18.4242852856285, 2.99999999999995, 0,  !- X,Y,Z Vertex 2 {m}
  -3, 2.99999999999995, 0,                !- X,Y,Z Vertex 3 {m}
  -3, 2.99999999999995, 4;                !- X,Y,Z Vertex 4 {m}

OS:Surface,
  {a712ba9d-d700-40b8-81a3-dffe8e28e969}, !- Handle
  Surface 9,                              !- Name
  Wall,                                   !- Surface Type
  ,                                       !- Construction Name
  {25ed44ce-d2e6-4385-aff2-e582bd6c0e88}, !- Space Name
  Surface,                                !- Outside Boundary Condition
  {04e4157d-09cd-424b-8470-ec0abe1bb6ad}, !- Outside Boundary Condition Object
  NoSun,                                  !- Sun Exposure
  NoWind,                                 !- Wind Exposure
  ,                                       !- View Factor to Ground
  ,                                       !- Number of Vertices
  15.4242852856285, -4.9737991503207e-14, 4, !- X,Y,Z Vertex 1 {m}
  15.4242852856285, -4.9737991503207e-14, 0, !- X,Y,Z Vertex 2 {m}
  18.4242852856285, 2.99999999999995, 0,  !- X,Y,Z Vertex 3 {m}
  18.4242852856285, 2.99999999999995, 4;  !- X,Y,Z Vertex 4 {m}

OS:Surface,
  {fc0e152f-994a-4168-84b8-14c0a4795751}, !- Handle
  Surface 10,                             !- Name
  Wall,                                   !- Surface Type
  ,                                       !- Construction Name
  {25ed44ce-d2e6-4385-aff2-e582bd6c0e88}, !- Space Name
  Surface,                                !- Outside Boundary Condition
  {d48bfa15-1045-44e4-b24d-1d63a2878f38}, !- Outside Boundary Condition Object
  NoSun,                                  !- Sun Exposure
  NoWind,                                 !- Wind Exposure
  ,                                       !- View Factor to Ground
  ,                                       !- Number of Vertices
  0, -4.9737991503207e-14, 4,             !- X,Y,Z Vertex 1 {m}
  0, -4.9737991503207e-14, 0,             !- X,Y,Z Vertex 2 {m}
  15.4242852856285, -4.9737991503207e-14, 0, !- X,Y,Z Vertex 3 {m}
  15.4242852856285, -4.9737991503207e-14, 4; !- X,Y,Z Vertex 4 {m}

OS:Surface,
  {d5bb01c3-23ac-4560-b1ba-f76a781f9147}, !- Handle
  Surface 11,                             !- Name
  Wall,                                   !- Surface Type
  ,                                       !- Construction Name
  {25ed44ce-d2e6-4385-aff2-e582bd6c0e88}, !- Space Name
  Surface,                                !- Outside Boundary Condition
  {e7a54196-d6b4-480c-8821-e9cc044edc36}, !- Outside Boundary Condition Object
  NoSun,                                  !- Sun Exposure
  NoWind,                                 !- Wind Exposure
  ,                                       !- View Factor to Ground
  ,                                       !- Number of Vertices
  -3, 2.99999999999995, 4,                !- X,Y,Z Vertex 1 {m}
  -3, 2.99999999999995, 0,                !- X,Y,Z Vertex 2 {m}
  0, -4.9737991503207e-14, 0,             !- X,Y,Z Vertex 3 {m}
  0, -4.9737991503207e-14, 4;             !- X,Y,Z Vertex 4 {m}

OS:Surface,
  {4401cb91-4d4c-43f8-86a0-6383c1c23b0d}, !- Handle
  Surface 12,                             !- Name
  RoofCeiling,                            !- Surface Type
  ,                                       !- Construction Name
  {25ed44ce-d2e6-4385-aff2-e582bd6c0e88}, !- Space Name
  Outdoors,                               !- Outside Boundary Condition
  ,                                       !- Outside Boundary Condition Object
  SunExposed,                             !- Sun Exposure
  WindExposed,                            !- Wind Exposure
  ,                                       !- View Factor to Ground
  ,                                       !- Number of Vertices
  0, -4.9737991503207e-14, 4,             !- X,Y,Z Vertex 1 {m}
  15.4242852856285, -4.9737991503207e-14, 4, !- X,Y,Z Vertex 2 {m}
  18.4242852856285, 2.99999999999995, 4,  !- X,Y,Z Vertex 3 {m}
  -3, 2.99999999999995, 4;                !- X,Y,Z Vertex 4 {m}

OS:Space,
  {ef7dc80b-37aa-4c01-865c-f5c74859bb39}, !- Handle
  Story 1 East Perimeter Space,           !- Name
  ,                                       !- Space Type Name
  ,                                       !- Default Construction Set Name
  ,                                       !- Default Schedule Set Name
  -0,                                     !- Direction of Relative North {deg}
  18.4242852856285,                       !- X Origin {m}
  3,                                      !- Y Origin {m}
  0,                                      !- Z Origin {m}
  {de05e8cb-deec-42eb-9100-e44ef0505ba9}, !- Building Story Name
  {002a6f88-29f0-44e2-8a60-d06f8346140c}; !- Thermal Zone Name

OS:Surface,
  {3c130726-e4ab-4cb2-85f9-4bc66256e065}, !- Handle
  Surface 13,                             !- Name
  Floor,                                  !- Surface Type
  ,                                       !- Construction Name
  {ef7dc80b-37aa-4c01-865c-f5c74859bb39}, !- Space Name
  Ground,                                 !- Outside Boundary Condition
  ,                                       !- Outside Boundary Condition Object
  NoSun,                                  !- Sun Exposure
  NoWind,                                 !- Wind Exposure
  ,                                       !- View Factor to Ground
  ,                                       !- Number of Vertices
  2.99999999999995, 18.4242852856285, 0,  !- X,Y,Z Vertex 1 {m}
  2.99999999999995, -3, 0,                !- X,Y,Z Vertex 2 {m}
  -4.9737991503207e-14, 0, 0,             !- X,Y,Z Vertex 3 {m}
  -4.9737991503207e-14, 15.4242852856285, 0; !- X,Y,Z Vertex 4 {m}

OS:Surface,
  {3490156f-77dd-481c-8ee3-3b73b59a3537}, !- Handle
  Surface 14,                             !- Name
  Wall,                                   !- Surface Type
  ,                                       !- Construction Name
  {ef7dc80b-37aa-4c01-865c-f5c74859bb39}, !- Space Name
  Outdoors,                               !- Outside Boundary Condition
  ,                                       !- Outside Boundary Condition Object
  SunExposed,                             !- Sun Exposure
  WindExposed,                            !- Wind Exposure
  ,                                       !- View Factor to Ground
  ,                                       !- Number of Vertices
  2.99999999999995, -3, 4,                !- X,Y,Z Vertex 1 {m}
  2.99999999999995, -3, 0,                !- X,Y,Z Vertex 2 {m}
  2.99999999999995, 18.4242852856285, 0,  !- X,Y,Z Vertex 3 {m}
  2.99999999999995, 18.4242852856285, 4;  !- X,Y,Z Vertex 4 {m}

OS:Surface,
  {a7c4d041-4e02-4977-ac5a-967f64c4ca18}, !- Handle
  Surface 15,                             !- Name
  Wall,                                   !- Surface Type
  ,                                       !- Construction Name
  {ef7dc80b-37aa-4c01-865c-f5c74859bb39}, !- Space Name
  Surface,                                !- Outside Boundary Condition
  {d46a9934-3673-4787-a23d-2ec4fde0f815}, !- Outside Boundary Condition Object
  NoSun,                                  !- Sun Exposure
  NoWind,                                 !- Wind Exposure
  ,                                       !- View Factor to Ground
  ,                                       !- Number of Vertices
  -4.9737991503207e-14, 0, 4,             !- X,Y,Z Vertex 1 {m}
  -4.9737991503207e-14, 0, 0,             !- X,Y,Z Vertex 2 {m}
  2.99999999999995, -3, 0,                !- X,Y,Z Vertex 3 {m}
  2.99999999999995, -3, 4;                !- X,Y,Z Vertex 4 {m}

OS:Surface,
  {fbd0db2d-6a7b-4766-9d12-1c70d89b2751}, !- Handle
  Surface 16,                             !- Name
  Wall,                                   !- Surface Type
  ,                                       !- Construction Name
  {ef7dc80b-37aa-4c01-865c-f5c74859bb39}, !- Space Name
  Surface,                                !- Outside Boundary Condition
  {cc726783-a5b1-4cfb-82e0-3c73555697be}, !- Outside Boundary Condition Object
  NoSun,                                  !- Sun Exposure
  NoWind,                                 !- Wind Exposure
  ,                                       !- View Factor to Ground
  ,                                       !- Number of Vertices
  -4.9737991503207e-14, 15.4242852856285, 4, !- X,Y,Z Vertex 1 {m}
  -4.9737991503207e-14, 15.4242852856285, 0, !- X,Y,Z Vertex 2 {m}
  -4.9737991503207e-14, 0, 0,             !- X,Y,Z Vertex 3 {m}
  -4.9737991503207e-14, 0, 4;             !- X,Y,Z Vertex 4 {m}

OS:Surface,
  {04e4157d-09cd-424b-8470-ec0abe1bb6ad}, !- Handle
  Surface 17,                             !- Name
  Wall,                                   !- Surface Type
  ,                                       !- Construction Name
  {ef7dc80b-37aa-4c01-865c-f5c74859bb39}, !- Space Name
  Surface,                                !- Outside Boundary Condition
  {a712ba9d-d700-40b8-81a3-dffe8e28e969}, !- Outside Boundary Condition Object
  NoSun,                                  !- Sun Exposure
  NoWind,                                 !- Wind Exposure
  ,                                       !- View Factor to Ground
  ,                                       !- Number of Vertices
  2.99999999999995, 18.4242852856285, 4,  !- X,Y,Z Vertex 1 {m}
  2.99999999999995, 18.4242852856285, 0,  !- X,Y,Z Vertex 2 {m}
  -4.9737991503207e-14, 15.4242852856285, 0, !- X,Y,Z Vertex 3 {m}
  -4.9737991503207e-14, 15.4242852856285, 4; !- X,Y,Z Vertex 4 {m}

OS:Surface,
  {7d645244-6b6f-4330-87ec-c25267cff352}, !- Handle
  Surface 18,                             !- Name
  RoofCeiling,                            !- Surface Type
  ,                                       !- Construction Name
  {ef7dc80b-37aa-4c01-865c-f5c74859bb39}, !- Space Name
  Outdoors,                               !- Outside Boundary Condition
  ,                                       !- Outside Boundary Condition Object
  SunExposed,                             !- Sun Exposure
  WindExposed,                            !- Wind Exposure
  ,                                       !- View Factor to Ground
  ,                                       !- Number of Vertices
  -4.9737991503207e-14, 15.4242852856285, 4, !- X,Y,Z Vertex 1 {m}
  -4.9737991503207e-14, 0, 4,             !- X,Y,Z Vertex 2 {m}
  2.99999999999995, -3, 4,                !- X,Y,Z Vertex 3 {m}
  2.99999999999995, 18.4242852856285, 4;  !- X,Y,Z Vertex 4 {m}

OS:Space,
  {7e72cbfd-705c-417b-9868-52ddf20f8f88}, !- Handle
  Story 1 South Perimeter Space,          !- Name
  ,                                       !- Space Type Name
  ,                                       !- Default Construction Set Name
  ,                                       !- Default Schedule Set Name
  -0,                                     !- Direction of Relative North {deg}
  0,                                      !- X Origin {m}
  0,                                      !- Y Origin {m}
  0,                                      !- Z Origin {m}
  {de05e8cb-deec-42eb-9100-e44ef0505ba9}, !- Building Story Name
  {3343b925-63df-45e1-af53-d0a278f1ecfa}; !- Thermal Zone Name

OS:Surface,
  {66d90bcc-126f-41fe-a1c7-8b2e08c319b9}, !- Handle
  Surface 19,                             !- Name
  Floor,                                  !- Surface Type
  ,                                       !- Construction Name
  {7e72cbfd-705c-417b-9868-52ddf20f8f88}, !- Space Name
  Ground,                                 !- Outside Boundary Condition
  ,                                       !- Outside Boundary Condition Object
  NoSun,                                  !- Sun Exposure
  NoWind,                                 !- Wind Exposure
  ,                                       !- View Factor to Ground
  ,                                       !- Number of Vertices
  21.4242852856285, 0, 0,                 !- X,Y,Z Vertex 1 {m}
  0, 0, 0,                                !- X,Y,Z Vertex 2 {m}
  3, 3, 0,                                !- X,Y,Z Vertex 3 {m}
  18.4242852856285, 3, 0;                 !- X,Y,Z Vertex 4 {m}

OS:Surface,
  {a58ef66e-5ff8-4467-a974-b4b0ea8fd029}, !- Handle
  Surface 20,                             !- Name
  Wall,                                   !- Surface Type
  ,                                       !- Construction Name
  {7e72cbfd-705c-417b-9868-52ddf20f8f88}, !- Space Name
  Outdoors,                               !- Outside Boundary Condition
  ,                                       !- Outside Boundary Condition Object
  SunExposed,                             !- Sun Exposure
  WindExposed,                            !- Wind Exposure
  ,                                       !- View Factor to Ground
  ,                                       !- Number of Vertices
  0, 0, 4,                                !- X,Y,Z Vertex 1 {m}
  0, 0, 0,                                !- X,Y,Z Vertex 2 {m}
  21.4242852856285, 0, 0,                 !- X,Y,Z Vertex 3 {m}
  21.4242852856285, 0, 4;                 !- X,Y,Z Vertex 4 {m}

OS:Surface,
  {7af2096e-775c-4b84-9565-7d3673b5c2f7}, !- Handle
  Surface 21,                             !- Name
  Wall,                                   !- Surface Type
  ,                                       !- Construction Name
  {7e72cbfd-705c-417b-9868-52ddf20f8f88}, !- Space Name
  Surface,                                !- Outside Boundary Condition
  {ea4a4770-0224-4994-adfe-ede2597721f4}, !- Outside Boundary Condition Object
  NoSun,                                  !- Sun Exposure
  NoWind,                                 !- Wind Exposure
  ,                                       !- View Factor to Ground
  ,                                       !- Number of Vertices
  3, 3, 4,                                !- X,Y,Z Vertex 1 {m}
  3, 3, 0,                                !- X,Y,Z Vertex 2 {m}
  0, 0, 0,                                !- X,Y,Z Vertex 3 {m}
  0, 0, 4;                                !- X,Y,Z Vertex 4 {m}

OS:Surface,
  {531236fa-f642-4466-834c-1d53f1fdc042}, !- Handle
  Surface 22,                             !- Name
  Wall,                                   !- Surface Type
  ,                                       !- Construction Name
  {7e72cbfd-705c-417b-9868-52ddf20f8f88}, !- Space Name
  Surface,                                !- Outside Boundary Condition
  {ad91800d-e79f-424c-984a-877f00a664bf}, !- Outside Boundary Condition Object
  NoSun,                                  !- Sun Exposure
  NoWind,                                 !- Wind Exposure
  ,                                       !- View Factor to Ground
  ,                                       !- Number of Vertices
  18.4242852856285, 3, 4,                 !- X,Y,Z Vertex 1 {m}
  18.4242852856285, 3, 0,                 !- X,Y,Z Vertex 2 {m}
  3, 3, 0,                                !- X,Y,Z Vertex 3 {m}
  3, 3, 4;                                !- X,Y,Z Vertex 4 {m}

OS:Surface,
  {d46a9934-3673-4787-a23d-2ec4fde0f815}, !- Handle
  Surface 23,                             !- Name
  Wall,                                   !- Surface Type
  ,                                       !- Construction Name
  {7e72cbfd-705c-417b-9868-52ddf20f8f88}, !- Space Name
  Surface,                                !- Outside Boundary Condition
  {a7c4d041-4e02-4977-ac5a-967f64c4ca18}, !- Outside Boundary Condition Object
  NoSun,                                  !- Sun Exposure
  NoWind,                                 !- Wind Exposure
  ,                                       !- View Factor to Ground
  ,                                       !- Number of Vertices
  21.4242852856285, 0, 4,                 !- X,Y,Z Vertex 1 {m}
  21.4242852856285, 0, 0,                 !- X,Y,Z Vertex 2 {m}
  18.4242852856285, 3, 0,                 !- X,Y,Z Vertex 3 {m}
  18.4242852856285, 3, 4;                 !- X,Y,Z Vertex 4 {m}

OS:Surface,
  {cd585179-217b-4ea1-98ce-0ba38732b047}, !- Handle
  Surface 24,                             !- Name
  RoofCeiling,                            !- Surface Type
  ,                                       !- Construction Name
  {7e72cbfd-705c-417b-9868-52ddf20f8f88}, !- Space Name
  Outdoors,                               !- Outside Boundary Condition
  ,                                       !- Outside Boundary Condition Object
  SunExposed,                             !- Sun Exposure
  WindExposed,                            !- Wind Exposure
  ,                                       !- View Factor to Ground
  ,                                       !- Number of Vertices
  18.4242852856285, 3, 4,                 !- X,Y,Z Vertex 1 {m}
  3, 3, 4,                                !- X,Y,Z Vertex 2 {m}
  0, 0, 4,                                !- X,Y,Z Vertex 3 {m}
  21.4242852856285, 0, 4;                 !- X,Y,Z Vertex 4 {m}

OS:Space,
  {15399597-e751-4d6d-9bb8-b60865a9458a}, !- Handle
  Story 1 Core Space,                     !- Name
  ,                                       !- Space Type Name
  ,                                       !- Default Construction Set Name
  ,                                       !- Default Schedule Set Name
  -0,                                     !- Direction of Relative North {deg}
  3,                                      !- X Origin {m}
  3,                                      !- Y Origin {m}
  0,                                      !- Z Origin {m}
  {de05e8cb-deec-42eb-9100-e44ef0505ba9}, !- Building Story Name
  {6f83d6f1-1e35-49f8-ab98-28607489355f}; !- Thermal Zone Name

OS:Surface,
  {5765ce2c-7d4b-4e00-a3f2-a478c87ff2dd}, !- Handle
  Surface 25,                             !- Name
  Floor,                                  !- Surface Type
  ,                                       !- Construction Name
  {15399597-e751-4d6d-9bb8-b60865a9458a}, !- Space Name
  Ground,                                 !- Outside Boundary Condition
  ,                                       !- Outside Boundary Condition Object
  NoSun,                                  !- Sun Exposure
  NoWind,                                 !- Wind Exposure
  ,                                       !- View Factor to Ground
  ,                                       !- Number of Vertices
  0, 0, 0,                                !- X,Y,Z Vertex 1 {m}
  0, 15.4242852856285, 0,                 !- X,Y,Z Vertex 2 {m}
  15.4242852856285, 15.4242852856285, 0,  !- X,Y,Z Vertex 3 {m}
  15.4242852856285, 0, 0;                 !- X,Y,Z Vertex 4 {m}

OS:Surface,
  {131001d2-01aa-485f-a43a-bb1fba7e9c08}, !- Handle
  Surface 26,                             !- Name
  Wall,                                   !- Surface Type
  ,                                       !- Construction Name
  {15399597-e751-4d6d-9bb8-b60865a9458a}, !- Space Name
  Surface,                                !- Outside Boundary Condition
  {711a8da9-d5b2-4bdb-945b-0e68df219d23}, !- Outside Boundary Condition Object
  NoSun,                                  !- Sun Exposure
  NoWind,                                 !- Wind Exposure
  ,                                       !- View Factor to Ground
  ,                                       !- Number of Vertices
  0, 15.4242852856285, 4,                 !- X,Y,Z Vertex 1 {m}
  0, 15.4242852856285, 0,                 !- X,Y,Z Vertex 2 {m}
  0, 0, 0,                                !- X,Y,Z Vertex 3 {m}
  0, 0, 4;                                !- X,Y,Z Vertex 4 {m}

OS:Surface,
  {d48bfa15-1045-44e4-b24d-1d63a2878f38}, !- Handle
  Surface 27,                             !- Name
  Wall,                                   !- Surface Type
  ,                                       !- Construction Name
  {15399597-e751-4d6d-9bb8-b60865a9458a}, !- Space Name
  Surface,                                !- Outside Boundary Condition
  {fc0e152f-994a-4168-84b8-14c0a4795751}, !- Outside Boundary Condition Object
  NoSun,                                  !- Sun Exposure
  NoWind,                                 !- Wind Exposure
  ,                                       !- View Factor to Ground
  ,                                       !- Number of Vertices
  15.4242852856285, 15.4242852856285, 4,  !- X,Y,Z Vertex 1 {m}
  15.4242852856285, 15.4242852856285, 0,  !- X,Y,Z Vertex 2 {m}
  0, 15.4242852856285, 0,                 !- X,Y,Z Vertex 3 {m}
  0, 15.4242852856285, 4;                 !- X,Y,Z Vertex 4 {m}

OS:Surface,
  {cc726783-a5b1-4cfb-82e0-3c73555697be}, !- Handle
  Surface 28,                             !- Name
  Wall,                                   !- Surface Type
  ,                                       !- Construction Name