
OS:Version,
  {ca3d4be6-85b6-40d3-81bb-8c56c73e0ccc}, !- Handle
  0.10.0;                                 !- Version Identifier

OS:BuildingStory,
  {a151dceb-7d16-4a8c-a492-a716de7aabe1}, !- Handle
  Story 1,                                !- Name
  0,                                      !- Nominal Z Coordinate {m}
  4,                                      !- Nominal Floor to Floor Height {m}
  ,                                       !- Default Construction Set Name
  ,                                       !- Default Schedule Set Name
  ;                                       !- Group Rendering Name

OS:Space,
  {2d95956e-9043-41c3-b0a4-9c33208cf1e2}, !- Handle
  Story 1 West Perimeter Space,           !- Name
  ,                                       !- Space Type Name
  ,                                       !- Default Construction Set Name
  ,                                       !- Default Schedule Set Name
  -0,                                     !- Direction of Relative North {deg}
  0,                                      !- X Origin {m}
  0,                                      !- Y Origin {m}
  0,                                      !- Z Origin {m}
  {a151dceb-7d16-4a8c-a492-a716de7aabe1}, !- Building Story Name
  {79b404ec-4f71-4db6-8ee6-a78ad5b26f0b}; !- Thermal Zone Name

OS:Surface,
  {73c2398a-3ab5-42c9-bcc2-269cbebef148}, !- Handle
  Surface 1,                              !- Name
  Floor,                                  !- Surface Type
  ,                                       !- Construction Name
  {2d95956e-9043-41c3-b0a4-9c33208cf1e2}, !- Space Name
  Ground,                                 !- Outside Boundary Condition
  ,                                       !- Outside Boundary Condition Object
  NoSun,                                  !- Sun Exposure
  NoWind,                                 !- Wind Exposure
  ,                                       !- View Factor to Ground
  ,                                       !- Number of Vertices
  0, 0, 0,                                !- X,Y,Z Vertex 1 {m}
  0, 19.94993734326, 0,                   !- X,Y,Z Vertex 2 {m}
  3, 16.94993734326, 0,                   !- X,Y,Z Vertex 3 {m}
  3, 3, 0;                                !- X,Y,Z Vertex 4 {m}

OS:Surface,
  {b32a1135-9053-4dbf-8b47-9f79ed3c365c}, !- Handle
  Surface 2,                              !- Name
  Wall,                                   !- Surface Type
  ,                                       !- Construction Name
  {2d95956e-9043-41c3-b0a4-9c33208cf1e2}, !- Space Name
  Outdoors,                               !- Outside Boundary Condition
  ,                                       !- Outside Boundary Condition Object
  SunExposed,                             !- Sun Exposure
  WindExposed,                            !- Wind Exposure
  ,                                       !- View Factor to Ground
  ,                                       !- Number of Vertices
  0, 19.94993734326, 4,                   !- X,Y,Z Vertex 1 {m}
  0, 19.94993734326, 0,                   !- X,Y,Z Vertex 2 {m}
  0, 0, 0,                                !- X,Y,Z Vertex 3 {m}
  0, 0, 4;                                !- X,Y,Z Vertex 4 {m}

OS:Surface,
  {371f7a20-949d-4e7d-92f3-ee4d84bc494a}, !- Handle
  Surface 3,                              !- Name
  Wall,                                   !- Surface Type
  ,                                       !- Construction Name
  {2d95956e-9043-41c3-b0a4-9c33208cf1e2}, !- Space Name
  Surface,                                !- Outside Boundary Condition
  {5b2fd7a0-4c71-4e56-ae88-0a20517e2eef}, !- Outside Boundary Condition Object
  NoSun,                                  !- Sun Exposure
  NoWind,                                 !- Wind Exposure
  ,                                       !- View Factor to Ground
  ,                                       !- Number of Vertices
  3, 16.94993734326, 4,                   !- X,Y,Z Vertex 1 {m}
  3, 16.94993734326, 0,                   !- X,Y,Z Vertex 2 {m}
  0, 19.94993734326, 0,                   !- X,Y,Z Vertex 3 {m}
  0, 19.94993734326, 4;                   !- X,Y,Z Vertex 4 {m}

OS:Surface,
  {02b6edd5-c47b-43e0-b565-56ca5aa25998}, !- Handle
  Surface 4,                              !- Name
  Wall,                                   !- Surface Type
  ,                                       !- Construction Name
  {2d95956e-9043-41c3-b0a4-9c33208cf1e2}, !- Space Name
  Surface,                                !- Outside Boundary Condition
  {bb14c801-11b6-46da-961a-3773e86a16c5}, !- Outside Boundary Condition Object
  NoSun,                                  !- Sun Exposure
  NoWind,                                 !- Wind Exposure
  ,                                       !- View Factor to Ground
  ,                                       !- Number of Vertices
  3, 3, 4,                                !- X,Y,Z Vertex 1 {m}
  3, 3, 0,                                !- X,Y,Z Vertex 2 {m}
  3, 16.94993734326, 0,                   !- X,Y,Z Vertex 3 {m}
  3, 16.94993734326, 4;                   !- X,Y,Z Vertex 4 {m}

OS:Surface,
  {d5c6a04e-d30d-472f-b406-cc852db9510d}, !- Handle
  Surface 5,                              !- Name
  Wall,                                   !- Surface Type
  ,                                       !- Construction Name
  {2d95956e-9043-41c3-b0a4-9c33208cf1e2}, !- Space Name
  Surface,                                !- Outside Boundary Condition
  {588815e7-fbb2-48c2-a790-7197e853e13d}, !- Outside Boundary Condition Object
  NoSun,                                  !- Sun Exposure
  NoWind,                                 !- Wind Exposure
  ,                                       !- View Factor to Ground
  ,                                       !- Number of Vertices
  0, 0, 4,                                !- X,Y,Z Vertex 1 {m}
  0, 0, 0,                                !- X,Y,Z Vertex 2 {m}
  3, 3, 0,                                !- X,Y,Z Vertex 3 {m}
  3, 3, 4;                                !- X,Y,Z Vertex 4 {m}

OS:Surface,
  {f6721e84-44ba-40ea-96bc-3aa579837006}, !- Handle
  Surface 6,                              !- Name
  RoofCeiling,                            !- Surface Type
  ,                                       !- Construction Name
  {2d95956e-9043-41c3-b0a4-9c33208cf1e2}, !- Space Name
  Outdoors,                               !- Outside Boundary Condition
  ,                                       !- Outside Boundary Condition Object
  SunExposed,                             !- Sun Exposure
  WindExposed,                            !- Wind Exposure
  ,                                       !- View Factor to Ground
  ,                                       !- Number of Vertices
  3, 3, 4,                                !- X,Y,Z Vertex 1 {m}
  3, 16.94993734326, 4,                   !- X,Y,Z Vertex 2 {m}
  0, 19.94993734326, 4,                   !- X,Y,Z Vertex 3 {m}
  0, 0, 4;                                !- X,Y,Z Vertex 4 {m}

OS:Space,
  {53c7289a-2c1d-4989-8d50-3f31abb89ab3}, !- Handle
  Story 1 North Perimeter Space,          !- Name
  ,                                       !- Space Type Name
  ,                                       !- Default Construction Set Name
  ,                                       !- Default Schedule Set Name
  -0,                                     !- Direction of Relative North {deg}
  3,                                      !- X Origin {m}
  16.94993734326,                         !- Y Origin {m}
  0,                                      !- Z Origin {m}
  {a151dceb-7d16-4a8c-a492-a716de7aabe1}, !- Building Story Name
  {a0273940-3ab2-44e6-991f-dbb7af6bcc00}; !- Thermal Zone Name

OS:Surface,
  {cb07119c-aac9-45a1-bab3-a7d8ceac19cf}, !- Handle
  Surface 7,                              !- Name
  Floor,                                  !- Surface Type
  ,                                       !- Construction Name
  {53c7289a-2c1d-4989-8d50-3f31abb89ab3}, !- Space Name
  Ground,                                 !- Outside Boundary Condition
  ,                                       !- Outside Boundary Condition Object
  NoSun,                                  !- Sun Exposure
  NoWind,                                 !- Wind Exposure
  ,                                       !- View Factor to Ground
  ,                                       !- Number of Vertices
  -3, 3, 0,                               !- X,Y,Z Vertex 1 {m}
  16.94993734326, 3, 0,                   !- X,Y,Z Vertex 2 {m}
  13.94993734326, -3.5527136788005e-15, 0, !- X,Y,Z Vertex 3 {m}
  0, -3.5527136788005e-15, 0;             !- X,Y,Z Vertex 4 {m}

OS:Surface,
  {1b5b89c6-4d4f-4347-8fc4-64b6cdfa078e}, !- Handle
  Surface 8,                              !- Name
  Wall,                                   !- Surface Type
  ,                                       !- Construction Name
  {53c7289a-2c1d-4989-8d50-3f31abb89ab3}, !- Space Name
  Outdoors,                               !- Outside Boundary Condition
  ,                                       !- Outside Boundary Condition Object
  SunExposed,                             !- Sun Exposure
  WindExposed,                            !- Wind Exposure
  ,                                       !- View Factor to Ground
  ,                                       !- Number of Vertices
  16.94993734326, 3, 4,                   !- X,Y,Z Vertex 1 {m}
  16.94993734326, 3, 0,                   !- X,Y,Z Vertex 2 {m}
  -3, 3, 0,                               !- X,Y,Z Vertex 3 {m}
  -3, 3, 4;                               !- X,Y,Z Vertex 4 {m}

OS:Surface,
  {9be1d3ef-9962-4ee7-be4d-615f6d55026e}, !- Handle
  Surface 9,                              !- Name
  Wall,                                   !- Surface Type
  ,                                       !- Construction Name
  {53c7289a-2c1d-4989-8d50-3f31abb89ab3}, !- Space Name
  Surface,                                !- Outside Boundary Condition
  {dd640c00-d06c-4815-860c-6f619fde655b}, !- Outside Boundary Condition Object
  NoSun,                                  !- Sun Exposure
  NoWind,                                 !- Wind Exposure
  ,                                       !- View Factor to Ground
  ,                                       !- Number of Vertices
  13.94993734326, -3.5527136788005e-15, 4, !- X,Y,Z Vertex 1 {m}
  13.94993734326, -3.5527136788005e-15, 0, !- X,Y,Z Vertex 2 {m}
  16.94993734326, 3, 0,                   !- X,Y,Z Vertex 3 {m}
  16.94993734326, 3, 4;                   !- X,Y,Z Vertex 4 {m}

OS:Surface,
  {63592b41-b4c3-47d2-9a3c-d6dce8409386}, !- Handle
  Surface 10,                             !- Name
  Wall,                                   !- Surface Type
  ,                                       !- Construction Name
  {53c7289a-2c1d-4989-8d50-3f31abb89ab3}, !- Space Name
  Surface,                                !- Outside Boundary Condition
  {42c04c82-180d-4785-8d10-8df90bd92e25}, !- Outside Boundary Condition Object
  NoSun,                                  !- Sun Exposure
  NoWind,                                 !- Wind Exposure
  ,                                       !- View Factor to Ground
  ,                                       !- Number of Vertices
  0, -3.5527136788005e-15, 4,             !- X,Y,Z Vertex 1 {m}
  0, -3.5527136788005e-15, 0,             !- X,Y,Z Vertex 2 {m}
  13.94993734326, -3.5527136788005e-15, 0, !- X,Y,Z Vertex 3 {m}
  13.94993734326, -3.5527136788005e-15, 4; !- X,Y,Z Vertex 4 {m}

OS:Surface,
  {5b2fd7a0-4c71-4e56-ae88-0a20517e2eef}, !- Handle
  Surface 11,                             !- Name
  Wall,                                   !- Surface Type
  ,                                       !- Construction Name
  {53c7289a-2c1d-4989-8d50-3f31abb89ab3}, !- Space Name
  Surface,                                !- Outside Boundary Condition
  {371f7a20-949d-4e7d-92f3-ee4d84bc494a}, !- Outside Boundary Condition Object
  NoSun,                                  !- Sun Exposure
  NoWind,                                 !- Wind Exposure
  ,                                       !- View Factor to Ground
  ,                                       !- Number of Vertices
  -3, 3, 4,                               !- X,Y,Z Vertex 1 {m}
  -3, 3, 0,                               !- X,Y,Z Vertex 2 {m}
  0, -3.5527136788005e-15, 0,             !- X,Y,Z Vertex 3 {m}
  0, -3.5527136788005e-15, 4;             !- X,Y,Z Vertex 4 {m}

OS:Surface,
  {292b5a73-ec81-417e-829b-92796f69846a}, !- Handle
  Surface 12,                             !- Name
  RoofCeiling,                            !- Surface Type
  ,                                       !- Construction Name
  {53c7289a-2c1d-4989-8d50-3f31abb89ab3}, !- Space Name
  Outdoors,                               !- Outside Boundary Condition
  ,                                       !- Outside Boundary Condition Object
  SunExposed,                             !- Sun Exposure
  WindExposed,                            !- Wind Exposure
  ,                                       !- View Factor to Ground
  ,                                       !- Number of Vertices
  0, -3.5527136788005e-15, 4,             !- X,Y,Z Vertex 1 {m}
  13.94993734326, -3.5527136788005e-15, 4, !- X,Y,Z Vertex 2 {m}
  16.94993734326, 3, 4,                   !- X,Y,Z Vertex 3 {m}
  -3, 3, 4;                               !- X,Y,Z Vertex 4 {m}

OS:Space,
  {8c502123-107a-496e-9377-77ba12cc95f5}, !- Handle
  Story 1 East Perimeter Space,           !- Name
  ,                                       !- Space Type Name
  ,                                       !- Default Construction Set Name
  ,                                       !- Default Schedule Set Name
  -0,                                     !- Direction of Relative North {deg}
  16.94993734326,                         !- X Origin {m}
  3,                                      !- Y Origin {m}
  0,                                      !- Z Origin {m}
  {a151dceb-7d16-4a8c-a492-a716de7aabe1}, !- Building Story Name
  {25699367-d38f-40e3-bcad-e3682986e71f}; !- Thermal Zone Name

OS:Surface,
  {b5093e04-8e07-44be-ae25-63f998952391}, !- Handle
  Surface 13,                             !- Name
  Floor,                                  !- Surface Type
  ,                                       !- Construction Name
  {8c502123-107a-496e-9377-77ba12cc95f5}, !- Space Name
  Ground,                                 !- Outside Boundary Condition
  ,                                       !- Outside Boundary Condition Object
  NoSun,                                  !- Sun Exposure
  NoWind,                                 !- Wind Exposure
  ,                                       !- View Factor to Ground
  ,                                       !- Number of Vertices
  3, 16.94993734326, 0,                   !- X,Y,Z Vertex 1 {m}
  3, -3, 0,                               !- X,Y,Z Vertex 2 {m}
  -3.5527136788005e-15, 0, 0,             !- X,Y,Z Vertex 3 {m}
  -3.5527136788005e-15, 13.94993734326, 0; !- X,Y,Z Vertex 4 {m}

OS:Surface,
  {f7e05052-9814-464c-b24a-1c6ef101d3c0}, !- Handle
  Surface 14,                             !- Name
  Wall,                                   !- Surface Type
  ,                                       !- Construction Name
  {8c502123-107a-496e-9377-77ba12cc95f5}, !- Space Name
  Outdoors,                               !- Outside Boundary Condition
  ,                                       !- Outside Boundary Condition Object
  SunExposed,                             !- Sun Exposure
  WindExposed,                            !- Wind Exposure
  ,                                       !- View Factor to Ground
  ,                                       !- Number of Vertices
  3, -3, 4,                               !- X,Y,Z Vertex 1 {m}
  3, -3, 0,                               !- X,Y,Z Vertex 2 {m}
  3, 16.94993734326, 0,                   !- X,Y,Z Vertex 3 {m}
  3, 16.94993734326, 4;                   !- X,Y,Z Vertex 4 {m}

OS:Surface,
  {2d0415d4-b70d-4a73-bdc3-15f5ea132a4e}, !- Handle
  Surface 15,                             !- Name
  Wall,                                   !- Surface Type
  ,                                       !- Construction Name
  {8c502123-107a-496e-9377-77ba12cc95f5}, !- Space Name
  Surface,                                !- Outside Boundary Condition
  {3b458a82-8cdb-4a5d-9749-b6645ed307ab}, !- Outside Boundary Condition Object
  NoSun,                                  !- Sun Exposure
  NoWind,                                 !- Wind Exposure
  ,                                       !- View Factor to Ground
  ,                                       !- Number of Vertices
  -3.5527136788005e-15, 0, 4,             !- X,Y,Z Vertex 1 {m}
  -3.5527136788005e-15, 0, 0,             !- X,Y,Z Vertex 2 {m}
  3, -3, 0,                               !- X,Y,Z Vertex 3 {m}
  3, -3, 4;                               !- X,Y,Z Vertex 4 {m}

OS:Surface,
  {755dc93f-fae3-489d-ac9e-883d283cf7d2}, !- Handle
  Surface 16,                             !- Name
  Wall,                                   !- Surface Type
  ,                                       !- Construction Name
  {8c502123-107a-496e-9377-77ba12cc95f5}, !- Space Name
  Surface,                                !- Outside Boundary Condition
  {17cb4fa7-8150-4269-933a-60a40ae06b9d}, !- Outside Boundary Condition Object
  NoSun,                                  !- Sun Exposure
  NoWind,                                 !- Wind Exposure
  ,                                       !- View Factor to Ground
  ,                                       !- Number of Vertices
  -3.5527136788005e-15, 13.94993734326, 4, !- X,Y,Z Vertex 1 {m}
  -3.5527136788005e-15, 13.94993734326, 0, !- X,Y,Z Vertex 2 {m}
  -3.5527136788005e-15, 0, 0,             !- X,Y,Z Vertex 3 {m}
  -3.5527136788005e-15, 0, 4;             !- X,Y,Z Vertex 4 {m}

OS:Surface,
  {dd640c00-d06c-4815-860c-6f619fde655b}, !- Handle
  Surface 17,                             !- Name
  Wall,                                   !- Surface Type
  ,                                       !- Construction Name
  {8c502123-107a-496e-9377-77ba12cc95f5}, !- Space Name
  Surface,                                !- Outside Boundary Condition
  {9be1d3ef-9962-4ee7-be4d-615f6d55026e}, !- Outside Boundary Condition Object
  NoSun,                                  !- Sun Exposure
  NoWind,                                 !- Wind Exposure
  ,                                       !- View Factor to Ground
  ,                                       !- Number of Vertices
  3, 16.94993734326, 4,                   !- X,Y,Z Vertex 1 {m}
  3, 16.94993734326, 0,                   !- X,Y,Z Vertex 2 {m}
  -3.5527136788005e-15, 13.94993734326, 0, !- X,Y,Z Vertex 3 {m}
  -3.5527136788005e-15, 13.94993734326, 4; !- X,Y,Z Vertex 4 {m}

OS:Surface,
  {8defeeb7-2137-4d32-8639-5c2e9cb607df}, !- Handle
  Surface 18,                             !- Name
  RoofCeiling,                            !- Surface Type
  ,                                       !- Construction Name
  {8c502123-107a-496e-9377-77ba12cc95f5}, !- Space Name
  Outdoors,                               !- Outside Boundary Condition
  ,                                       !- Outside Boundary Condition Object
  SunExposed,                             !- Sun Exposure
  WindExposed,                            !- Wind Exposure
  ,                                       !- View Factor to Ground
  ,                                       !- Number of Vertices
  -3.5527136788005e-15, 13.94993734326, 4, !- X,Y,Z Vertex 1 {m}
  -3.5527136788005e-15, 0, 4,             !- X,Y,Z Vertex 2 {m}
  3, -3, 4,                               !- X,Y,Z Vertex 3 {m}
  3, 16.94993734326, 4;                   !- X,Y,Z Vertex 4 {m}

OS:Space,
  {34c62325-ff27-43b2-b797-312956970d87}, !- Handle
  Story 1 South Perimeter Space,          !- Name
  ,                                       !- Space Type Name
  ,                                       !- Default Construction Set Name
  ,                                       !- Default Schedule Set Name
  -0,                                     !- Direction of Relative North {deg}
  0,                                      !- X Origin {m}
  0,                                      !- Y Origin {m}
  0,                                      !- Z Origin {m}
  {a151dceb-7d16-4a8c-a492-a716de7aabe1}, !- Building Story Name
  {874e896a-3e23-426c-9675-445f3737c4e3}; !- Thermal Zone Name

OS:Surface,
  {d82b64ac-619e-44f5-978a-46fa5f57efbc}, !- Handle
  Surface 19,                             !- Name
  Floor,                                  !- Surface Type
  ,                                       !- Construction Name
  {34c62325-ff27-43b2-b797-312956970d87}, !- Space Name
  Ground,                                 !- Outside Boundary Condition
  ,                                       !- Outside Boundary Condition Object
  NoSun,                                  !- Sun Exposure
  NoWind,                                 !- Wind Exposure
  ,                                       !- View Factor to Ground
  ,                                       !- Number of Vertices
  19.94993734326, 0, 0,                   !- X,Y,Z Vertex 1 {m}
  0, 0, 0,                                !- X,Y,Z Vertex 2 {m}
  3, 3, 0,                                !- X,Y,Z Vertex 3 {m}
  16.94993734326, 3, 0;                   !- X,Y,Z Vertex 4 {m}

OS:Surface,
  {98bbb01c-d141-4acb-b430-8f7ade0b0797}, !- Handle
  Surface 20,                             !- Name
  Wall,                                   !- Surface Type
  ,                                       !- Construction Name
  {34c62325-ff27-43b2-b797-312956970d87}, !- Space Name
  Outdoors,                               !- Outside Boundary Condition
  ,                                       !- Outside Boundary Condition Object
  SunExposed,                             !- Sun Exposure
  WindExposed,                            !- Wind Exposure
  ,                                       !- View Factor to Ground
  ,                                       !- Number of Vertices
  0, 0, 4,                                !- X,Y,Z Vertex 1 {m}
  0, 0, 0,                                !- X,Y,Z Vertex 2 {m}
  19.94993734326, 0, 0,                   !- X,Y,Z Vertex 3 {m}
  19.94993734326, 0, 4;                   !- X,Y,Z Vertex 4 {m}

OS:Surface,
  {588815e7-fbb2-48c2-a790-7197e853e13d}, !- Handle
  Surface 21,                             !- Name
  Wall,                                   !- Surface Type
  ,                                       !- Construction Name
  {34c62325-ff27-43b2-b797-312956970d87}, !- Space Name
  Surface,                                !- Outside Boundary Condition
  {d5c6a04e-d30d-472f-b406-cc852db9510d}, !- Outside Boundary Condition Object
  NoSun,                                  !- Sun Exposure
  NoWind,                                 !- Wind Exposure
  ,                                       !- View Factor to Ground
  ,                                       !- Number of Vertices
  3, 3, 4,                                !- X,Y,Z Vertex 1 {m}
  3, 3, 0,                                !- X,Y,Z Vertex 2 {m}
  0, 0, 0,                                !- X,Y,Z Vertex 3 {m}
  0, 0, 4;                                !- X,Y,Z Vertex 4 {m}

OS:Surface,
  {2fb651af-a5e9-4cad-886e-b8c4e3bb7c53}, !- Handle
  Surface 22,                             !- Name
  Wall,                                   !- Surface Type
  ,                                       !- Construction Name
  {34c62325-ff27-43b2-b797-312956970d87}, !- Space Name
  Surface,                                !- Outside Boundary Condition
  {5f4fb624-0fe5-4ba2-8071-1d578ef7c195}, !- Outside Boundary Condition Object
  NoSun,                                  !- Sun Exposure
  NoWind,                                 !- Wind Exposure
  ,                                       !- View Factor to Ground
  ,                                       !- Number of Vertices
  16.94993734326, 3, 4,                   !- X,Y,Z Vertex 1 {m}
  16.94993734326, 3, 0,                   !- X,Y,Z Vertex 2 {m}
  3, 3, 0,                                !- X,Y,Z Vertex 3 {m}
  3, 3, 4;                                !- X,Y,Z Vertex 4 {m}

OS:Surface,
  {3b458a82-8cdb-4a5d-9749-b6645ed307ab}, !- Handle
  Surface 23,                             !- Name
  Wall,                                   !- Surface Type
  ,                                       !- Construction Name
  {34c62325-ff27-43b2-b797-312956970d87}, !- Space Name
  Surface,                                !- Outside Boundary Condition
  {2d0415d4-b70d-4a73-bdc3-15f5ea132a4e}, !- Outside Boundary Condition Object
  NoSun,                                  !- Sun Exposure
  NoWind,                                 !- Wind Exposure
  ,                                       !- View Factor to Ground
  ,                                       !- Number of Vertices
  19.94993734326, 0, 4,                   !- X,Y,Z Vertex 1 {m}
  19.94993734326, 0, 0,                   !- X,Y,Z Vertex 2 {m}
  16.94993734326, 3, 0,                   !- X,Y,Z Vertex 3 {m}
  16.94993734326, 3, 4;                   !- X,Y,Z Vertex 4 {m}

OS:Surface,
  {f4920187-f971-4599-9907-b5befa83ae02}, !- Handle
  Surface 24,                             !- Name
  RoofCeiling,                            !- Surface Type
  ,                                       !- Construction Name
  {34c62325-ff27-43b2-b797-312956970d87}, !- Space Name
  Outdoors,                               !- Outside Boundary Condition
  ,                                       !- Outside Boundary Condition Object
  SunExposed,                             !- Sun Exposure
  WindExposed,                            !- Wind Exposure
  ,                                       !- View Factor to Ground
  ,                                       !- Number of Vertices
  16.94993734326, 3, 4,                   !- X,Y,Z Vertex 1 {m}
  3, 3, 4,                                !- X,Y,Z Vertex 2 {m}
  0, 0, 4,                                !- X,Y,Z Vertex 3 {m}
  19.94993734326, 0, 4;                   !- X,Y,Z Vertex 4 {m}

OS:Space,
  {500752a0-3e66-4278-b7c2-0ec593c72cdb}, !- Handle
  Story 1 Core Space,                     !- Name
  ,                                       !- Space Type Name
  ,                                       !- Default Construction Set Name
  ,                                       !- Default Schedule Set Name
  -0,                                     !- Direction of Relative North {deg}
  3,                                      !- X Origin {m}
  3,                                      !- Y Origin {m}
  0,                                      !- Z Origin {m}
  {a151dceb-7d16-4a8c-a492-a716de7aabe1}, !- Building Story Name
  {a33d2607-1ce0-44ca-bf4a-aeea3819104b}; !- Thermal Zone Name

OS:Surface,
  {1f107d49-0bbe-4797-9c52-8ad7a3d7e517}, !- Handle
  Surface 25,                             !- Name
  Floor,                                  !- Surface Type
  ,                                       !- Construction Name
  {500752a0-3e66-4278-b7c2-0ec593c72cdb}, !- Space Name
  Ground,                                 !- Outside Boundary Condition
  ,                                       !- Outside Boundary Condition Object
  NoSun,                                  !- Sun Exposure
  NoWind,                                 !- Wind Exposure
  ,                                       !- View Factor to Ground
  ,                                       !- Number of Vertices
  0, 0, 0,                                !- X,Y,Z Vertex 1 {m}
  0, 13.94993734326, 0,                   !- X,Y,Z Vertex 2 {m}
  13.94993734326, 13.94993734326, 0,      !- X,Y,Z Vertex 3 {m}
  13.94993734326, 0, 0;                   !- X,Y,Z Vertex 4 {m}

OS:Surface,
  {bb14c801-11b6-46da-961a-3773e86a16c5}, !- Handle
  Surface 26,                             !- Name
  Wall,                                   !- Surface Type
  ,                                       !- Construction Name
  {500752a0-3e66-4278-b7c2-0ec593c72cdb}, !- Space Name
  Surface,                                !- Outside Boundary Condition
  {02b6edd5-c47b-43e0-b565-56ca5aa25998}, !- Outside Boundary Condition Object
  NoSun,                                  !- Sun Exposure
  NoWind,                                 !- Wind Exposure
  ,                                       !- View Factor to Ground
  ,                                       !- Number of Vertices
  0, 13.94993734326, 4,                   !- X,Y,Z Vertex 1 {m}
  0, 13.94993734326, 0,                   !- X,Y,Z Vertex 2 {m}
  0, 0, 0,                                !- X,Y,Z Vertex 3 {m}
  0, 0, 4;                                !- X,Y,Z Vertex 4 {m}

OS:Surface,
  {42c04c82-180d-4785-8d10-8df90bd92e25}, !- Handle
  Surface 27,                             !- Name
  Wall,                                   !- Surface Type
  ,                                       !- Construction Name
  {500752a0-3e66-4278-b7c2-0ec593c72cdb}, !- Space Name
  Surface,                                !- Outside Boundary Condition
  {63592b41-b4c3-47d2-9a3c-d6dce8409386}, !- Outside Boundary Condition Object
  NoSun,                                  !- Sun Exposure
  NoWind,                                 !- Wind Exposure
  ,                                       !- View Factor to Ground
  ,                                       !- Number of Vertices
  13.94993734326, 13.94993734326, 4,      !- X,Y,Z Vertex 1 {m}
  13.94993734326, 13.94993734326, 0,      !- X,Y,Z Vertex 2 {m}
  0, 13.94993734326, 0,                   !- X,Y,Z Vertex 3 {m}
  0, 13.94993734326, 4;                   !- X,Y,Z Vertex 4 {m}

OS:Surface,
  {17cb4fa7-8150-4269-933a-60a40ae06b9d}, !- Handle
  Surface 28,                             !- Name
  Wall,                                   !- Surface Type
  ,                                       !- Construction Name
  {500752a0-3e66-4278-b7c2-0ec593c72cdb}, !- Space Name