
OS:Version,
  {23d50b21-b265-41a1-ae56-b87190e7dd1c}, !- Handle
  0.10.0;                                 !- Version Identifier

OS:BuildingStory,
  {cfe061d6-f312-430f-8b12-2d8fea36a4ae}, !- Handle
  Story 1,                                !- Name
  0,                                      !- Nominal Z Coordinate {m}
  4,                                      !- Nominal Floor to Floor Height {m}
  ,                                       !- Default Construction Set Name
  ,                                       !- Default Schedule Set Name
  ;                                       !- Group Rendering Name

OS:Space,
  {0d503826-0a1d-4777-af88-78982e115531}, !- Handle
  Story 1 West Perimeter Space,           !- Name
  ,                                       !- Space Type Name
  ,                                       !- Default Construction Set Name
  ,                                       !- Default Schedule Set Name
  -0,                                     !- Direction of Relative North {deg}
  0,                                      !- X Origin {m}
  0,                                      !- Y Origin {m}
  0,                                      !- Z Origin {m}
  {cfe061d6-f312-430f-8b12-2d8fea36a4ae}, !- Building Story Name
  {1affac16-5af9-4f25-b41e-9f3defed6f5a}; !- Thermal Zone Name

OS:Surface,
  {587e1e82-a8e7-4a29-938e-b1bec122f76e}, !- Handle
  Surface 1,                              !- Name
  Floor,                                  !- Surface Type
  ,                                       !- Construction Name
  {0d503826-0a1d-4777-af88-78982e115531}, !- Space Name
  Ground,                                 !- Outside Boundary Condition
  ,                                       !- Outside Boundary Condition Object
  NoSun,                                  !- Sun Exposure
  NoWind,                                 !- Wind Exposure
  ,                                       !- View Factor to Ground
  ,                                       !- Number of Vertices
  0, 0, 0,                                !- X,Y,Z Vertex 1 {m}
  0, 17.2916164657906, 0,                 !- X,Y,Z Vertex 2 {m}
  3, 14.2916164657906, 0,                 !- X,Y,Z Vertex 3 {m}
  3, 3, 0;                                !- X,Y,Z Vertex 4 {m}

OS:Surface,
  {1e40410e-11f5-4a01-82a7-e3f03e4f9ddf}, !- Handle
  Surface 2,                              !- Name
  Wall,                                   !- Surface Type
  ,                                       !- Construction Name
  {0d503826-0a1d-4777-af88-78982e115531}, !- Space Name
  Outdoors,                               !- Outside Boundary Condition
  ,                                       !- Outside Boundary Condition Object
  SunExposed,                             !- Sun Exposure
  WindExposed,                            !- Wind Exposure
  ,                                       !- View Factor to Ground
  ,                                       !- Number of Vertices
  0, 17.2916164657906, 4,                 !- X,Y,Z Vertex 1 {m}
  0, 17.2916164657906, 0,                 !- X,Y,Z Vertex 2 {m}
  0, 0, 0,                                !- X,Y,Z Vertex 3 {m}
  0, 0, 4;                                !- X,Y,Z Vertex 4 {m}

OS:Surface,
  {c133042e-f5b8-4a07-95e5-b72eeb69fe4b}, !- Handle
  Surface 3,                              !- Name
  Wall,                                   !- Surface Type
  ,                                       !- Construction Name
  {0d503826-0a1d-4777-af88-78982e115531}, !- Space Name
  Surface,                                !- Outside Boundary Condition
  {31877cd9-5429-4bb1-b734-d3d4ca9e1a98}, !- Outside Boundary Condition Object
  NoSun,                                  !- Sun Exposure
  NoWind,                                 !- Wind Exposure
  ,                                       !- View Factor to Ground
  ,                                       !- Number of Vertices
  3, 14.2916164657906, 4,                 !- X,Y,Z Vertex 1 {m}
  3, 14.2916164657906, 0,                 !- X,Y,Z Vertex 2 {m}
  0, 17.2916164657906, 0,                 !- X,Y,Z Vertex 3 {m}
  0, 17.2916164657906, 4;                 !- X,Y,Z Vertex 4 {m}

OS:Surface,
  {6654d0dc-a2eb-4540-9db3-4fcef81d7685}, !- Handle
  Surface 4,                              !- Name
  Wall,                                   !- Surface Type
  ,                                       !- Construction Name
  {0d503826-0a1d-4777-af88-78982e115531}, !- Space Name
  Surface,                                !- Outside Boundary Condition
  {69afee08-7981-4944-b02f-133c53c6b153}, !- Outside Boundary Condition Object
  NoSun,                                  !- Sun Exposure
  NoWind,                                 !- Wind Exposure
  ,                                       !- View Factor to Ground
  ,                                       !- Number of Vertices
  3, 3, 4,                                !- X,Y,Z Vertex 1 {m}
  3, 3, 0,                                !- X,Y,Z Vertex 2 {m}
  3, 14.2916164657906, 0,                 !- X,Y,Z Vertex 3 {m}
  3, 14.2916164657906, 4;                 !- X,Y,Z Vertex 4 {m}

OS:Surface,
  {6ec525df-1201-4b4e-839c-6346b0558761}, !- Handle
  Surface 5,                              !- Name
  Wall,                                   !- Surface Type
  ,                                       !- Construction Name
  {0d503826-0a1d-4777-af88-78982e115531}, !- Space Name
  Surface,                                !- Outside Boundary Condition
  {9793dee4-e4f3-41c3-8d41-6bcf2a0678f2}, !- Outside Boundary Condition Object
  NoSun,                                  !- Sun Exposure
  NoWind,                                 !- Wind Exposure
  ,                                       !- View Factor to Ground
  ,                                       !- Number of Vertices
  0, 0, 4,                                !- X,Y,Z Vertex 1 {m}
  0, 0, 0,                                !- X,Y,Z Vertex 2 {m}
  3, 3, 0,                                !- X,Y,Z Vertex 3 {m}
  3, 3, 4;                                !- X,Y,Z Vertex 4 {m}

OS:Surface,
  {211274f3-fefe-4fe9-ba92-a5bed8fad964}, !- Handle
  Surface 6,                              !- Name
  RoofCeiling,                            !- Surface Type
  ,                                       !- Construction Name
  {0d503826-0a1d-4777-af88-78982e115531}, !- Space Name
  Outdoors,                               !- Outside Boundary Condition
  ,                                       !- Outside Boundary Condition Object
  SunExposed,                             !- Sun Exposure
  WindExposed,                            !- Wind Exposure
  ,                                       !- View Factor to Ground
  ,                                       !- Number of Vertices
  3, 3, 4,                                !- X,Y,Z Vertex 1 {m}
  3, 14.2916164657906, 4,                 !- X,Y,Z Vertex 2 {m}
  0, 17.2916164657906, 4,                 !- X,Y,Z Vertex 3 {m}
  0, 0, 4;                                !- X,Y,Z Vertex 4 {m}

OS:Space,
  {478d10e5-d876-4391-9068-e610abbcc7bc}, !- Handle
  Story 1 North Perimeter Space,          !- Name
  ,                                       !- Space Type Name
  ,                                       !- Default Construction Set Name
  ,                                       !- Default Schedule Set Name
  -0,                                     !- Direction of Relative North {deg}
  3,                                      !- X Origin {m}
  14.2916164657906,                       !- Y Origin {m}
  0,                                      !- Z Origin {m}
  {cfe061d6-f312-430f-8b12-2d8fea36a4ae}, !- Building Story Name
  {ea5b6f15-6600-4600-9ce1-979589ad2b7a}; !- Thermal Zone Name

OS:Surface,
  {ce37fc77-88a9-4134-9886-4f37a8f1e1f9}, !- Handle
  Surface 7,                              !- Name
  Floor,                                  !- Surface Type
  ,                                       !- Construction Name
  {478d10e5-d876-4391-9068-e610abbcc7bc}, !- Space Name
  Ground,                                 !- Outside Boundary Condition
  ,                                       !- Outside Boundary Condition Object
  NoSun,                                  !- Sun Exposure
  NoWind,                                 !- Wind Exposure
  ,                                       !- View Factor to Ground
  ,                                       !- Number of Vertices
  -3, 3.00000000000002, 0,                !- X,Y,Z Vertex 1 {m}
  14.2916164657906, 3.00000000000002, 0,  !- X,Y,Z Vertex 2 {m}
  11.2916164657906, 1.77635683940025e-14, 0, !- X,Y,Z Vertex 3 {m}
  0, 1.77635683940025e-14, 0;             !- X,Y,Z Vertex 4 {m}

OS:Surface,
  {da4b16ec-ed15-4530-b571-c5aa286db9f5}, !- Handle
  Surface 8,                              !- Name
  Wall,                                   !- Surface Type
  ,                                       !- Construction Name
  {478d10e5-d876-4391-9068-e610abbcc7bc}, !- Space Name
  Outdoors,                               !- Outside Boundary Condition
  ,                                       !- Outside Boundary Condition Object
  SunExposed,                             !- Sun Exposure
  WindExposed,                            !- Wind Exposure
  ,                                       !- View Factor to Ground
  ,                                       !- Number of Vertices
  14.2916164657906, 3.00000000000002, 4,  !- X,Y,Z Vertex 1 {m}
  14.2916164657906, 3.00000000000002, 0,  !- X,Y,Z Vertex 2 {m}
  -3, 3.00000000000002, 0,                !- X,Y,Z Vertex 3 {m}
  -3, 3.00000000000002, 4;                !- X,Y,Z Vertex 4 {m}

OS:Surface,
  {cca2b506-8783-494a-a6a5-e82755562734}, !- Handle
  Surface 9,                              !- Name
  Wall,                                   !- Surface Type
  ,                                       !- Construction Name
  {478d10e5-d876-4391-9068-e610abbcc7bc}, !- Space Name
  Surface,                                !- Outside Boundary Condition
  {8cd5f2b1-195b-4ff6-be09-dd12ae9cbc9d}, !- Outside Boundary Condition Object
  NoSun,                                  !- Sun Exposure
  NoWind,                                 !- Wind Exposure
  ,                                       !- View Factor to Ground
  ,                                       !- Number of Vertices
  11.2916164657906, 1.77635683940025e-14, 4, !- X,Y,Z Vertex 1 {m}
  11.2916164657906, 1.77635683940025e-14, 0, !- X,Y,Z Vertex 2 {m}
  14.2916164657906, 3.00000000000002, 0,  !- X,Y,Z Vertex 3 {m}
  14.2916164657906, 3.00000000000002, 4;  !- X,Y,Z Vertex 4 {m}

OS:Surface,
  {731437b4-28ad-449b-90f6-c496d57dab74}, !- Handle
  Surface 10,                             !- Name
  Wall,                                   !- Surface Type
  ,                                       !- Construction Name
  {478d10e5-d876-4391-9068-e610abbcc7bc}, !- Space Name
  Surface,                                !- Outside Boundary Condition
  {81c6bdd6-d40b-4d78-acfc-f7254ffc6350}, !- Outside Boundary Condition Object
  NoSun,                                  !- Sun Exposure
  NoWind,                                 !- Wind Exposure
  ,                                       !- View Factor to Ground
  ,                                       !- Number of Vertices
  0, 1.77635683940025e-14, 4,             !- X,Y,Z Vertex 1 {m}
  0, 1.77635683940025e-14, 0,             !- X,Y,Z Vertex 2 {m}
  11.2916164657906, 1.77635683940025e-14, 0, !- X,Y,Z Vertex 3 {m}
  11.2916164657906, 1.77635683940025e-14, 4; !- X,Y,Z Vertex 4 {m}

OS:Surface,
  {31877cd9-5429-4bb1-b734-d3d4ca9e1a98}, !- Handle
  Surface 11,                             !- Name
  Wall,                                   !- Surface Type
  ,                                       !- Construction Name
  {478d10e5-d876-4391-9068-e610abbcc7bc}, !- Space Name
  Surface,                                !- Outside Boundary Condition
  {c133042e-f5b8-4a07-95e5-b72eeb69fe4b}, !- Outside Boundary Condition Object
  NoSun,                                  !- Sun Exposure
  NoWind,                                 !- Wind Exposure
  ,                                       !- View Factor to Ground
  ,                                       !- Number of Vertices
  -3, 3.00000000000002, 4,                !- X,Y,Z Vertex 1 {m}
  -3, 3.00000000000002, 0,                !- X,Y,Z Vertex 2 {m}
  0, 1.77635683940025e-14, 0,             !- X,Y,Z Vertex 3 {m}
  0, 1.77635683940025e-14, 4;             !- X,Y,Z Vertex 4 {m}

OS:Surface,
  {30c0bf22-c039-4950-a3b3-1a0a25c2fbf1}, !- Handle
  Surface 12,                             !- Name
  RoofCeiling,                            !- Surface Type
  ,                                       !- Construction Name
  {478d10e5-d876-4391-9068-e610abbcc7bc}, !- Space Name
  Outdoors,                               !- Outside Boundary Condition
  ,                                       !- Outside Boundary Condition Object
  SunExposed,                             !- Sun Exposure
  WindExposed,                            !- Wind Exposure
  ,                                       !- View Factor to Ground
  ,                                       !- Number of Vertices
  0, 1.77635683940025e-14, 4,             !- X,Y,Z Vertex 1 {m}
  11.2916164657906, 1.77635683940025e-14, 4, !- X,Y,Z Vertex 2 {m}
  14.2916164657906, 3.00000000000002, 4,  !- X,Y,Z Vertex 3 {m}
  -3, 3.00000000000002, 4;                !- X,Y,Z Vertex 4 {m}

OS:Space,
  {e1d4e368-d43b-4437-83e5-900921458247}, !- Handle
  Story 1 East Perimeter Space,           !- Name
  ,                                       !- Space Type Name
  ,                                       !- Default Construction Set Name
  ,                                       !- Default Schedule Set Name
  -0,                                     !- Direction of Relative North {deg}
  14.2916164657906,                       !- X Origin {m}
  3,                                      !- Y Origin {m}
  0,                                      !- Z Origin {m}
  {cfe061d6-f312-430f-8b12-2d8fea36a4ae}, !- Building Story Name
  {c655b1ff-f312-45df-871d-fc98e8079940}; !- Thermal Zone Name

OS:Surface,
  {487f7586-c6f8-4bd9-97db-5d479dfab31c}, !- Handle
  Surface 13,                             !- Name
  Floor,                                  !- Surface Type
  ,                                       !- Construction Name
  {e1d4e368-d43b-4437-83e5-900921458247}, !- Space Name
  Ground,                                 !- Outside Boundary Condition
  ,                                       !- Outside Boundary Condition Object
  NoSun,                                  !- Sun Exposure
  NoWind,                                 !- Wind Exposure
  ,                                       !- View Factor to Ground
  ,                                       !- Number of Vertices
  3.00000000000002, 14.2916164657906, 0,  !- X,Y,Z Vertex 1 {m}
  3.00000000000002, -3, 0,                !- X,Y,Z Vertex 2 {m}
  1.77635683940025e-14, 0, 0,             !- X,Y,Z Vertex 3 {m}
  1.77635683940025e-14, 11.2916164657906, 0; !- X,Y,Z Vertex 4 {m}

OS:Surface,
  {2556b539-56eb-4a4f-84ef-e8f388271954}, !- Handle
  Surface 14,                             !- Name
  Wall,                                   !- Surface Type
  ,                                       !- Construction Name
  {e1d4e368-d43b-4437-83e5-900921458247}, !- Space Name
  Outdoors,                               !- Outside Boundary Condition
  ,                                       !- Outside Boundary Condition Object
  SunExposed,                             !- Sun Exposure
  WindExposed,                            !- Wind Exposure
  ,                                       !- View Factor to Ground
  ,                                       !- Number of Vertices
  3.00000000000002, -3, 4,                !- X,Y,Z Vertex 1 {m}
  3.00000000000002, -3, 0,                !- X,Y,Z Vertex 2 {m}
  3.00000000000002, 14.2916164657906, 0,  !- X,Y,Z Vertex 3 {m}
  3.00000000000002, 14.2916164657906, 4;  !- X,Y,Z Vertex 4 {m}

OS:Surface,
  {dfb88acd-6d0e-472c-bff8-9d6b50b2800e}, !- Handle
  Surface 15,                             !- Name
  Wall,                                   !- Surface Type
  ,                                       !- Construction Name
  {e1d4e368-d43b-4437-83e5-900921458247}, !- Space Name
  Surface,                                !- Outside Boundary Condition
  {792ee6c7-0156-4f74-bb0d-f96f99660304}, !- Outside Boundary Condition Object
  NoSun,                                  !- Sun Exposure
  NoWind,                                 !- Wind Exposure
  ,                                       !- View Factor to Ground
  ,                                       !- Number of Vertices
  1.77635683940025e-14, 0, 4,             !- X,Y,Z Vertex 1 {m}
  1.77635683940025e-14, 0, 0,             !- X,Y,Z Vertex 2 {m}
  3.00000000000002, -3, 0,                !- X,Y,Z Vertex 3 {m}
  3.00000000000002, -3, 4;                !- X,Y,Z Vertex 4 {m}

OS:Surface,
  {399b22e2-616d-4d97-83be-4359b979864c}, !- Handle
  Surface 16,                             !- Name
  Wall,                                   !- Surface Type
  ,                                       !- Construction Name
  {e1d4e368-d43b-4437-83e5-900921458247}, !- Space Name
  Surface,                                !- Outside Boundary Condition
  {91466e2c-0c7f-4988-9578-6279c19f0079}, !- Outside Boundary Condition Object
  NoSun,                                  !- Sun Exposure
  NoWind,                                 !- Wind Exposure
  ,                                       !- View Factor to Ground
  ,                                       !- Number of Vertices
  1.77635683940025e-14, 11.2916164657906, 4, !- X,Y,Z Vertex 1 {m}
  1.77635683940025e-14, 11.2916164657906, 0, !- X,Y,Z Vertex 2 {m}
  1.77635683940025e-14, 0, 0,             !- X,Y,Z Vertex 3 {m}
  1.77635683940025e-14, 0, 4;             !- X,Y,Z Vertex 4 {m}

OS:Surface,
  {8cd5f2b1-195b-4ff6-be09-dd12ae9cbc9d}, !- Handle
  Surface 17,                             !- Name
  Wall,                                   !- Surface Type
  ,                                       !- Construction Name
  {e1d4e368-d43b-4437-83e5-900921458247}, !- Space Name
  Surface,                                !- Outside Boundary Condition
  {cca2b506-8783-494a-a6a5-e82755562734}, !- Outside Boundary Condition Object
  NoSun,                                  !- Sun Exposure
  NoWind,                                 !- Wind Exposure
  ,                                       !- View Factor to Ground
  ,                                       !- Number of Vertices
  3.00000000000002, 14.2916164657906, 4,  !- X,Y,Z Vertex 1 {m}
  3.00000000000002, 14.2916164657906, 0,  !- X,Y,Z Vertex 2 {m}
  1.77635683940025e-14, 11.2916164657906, 0, !- X,Y,Z Vertex 3 {m}
  1.77635683940025e-14, 11.2916164657906, 4; !- X,Y,Z Vertex 4 {m}

OS:Surface,
  {e930ff5b-6ece-406d-b027-99d94feac41f}, !- Handle
  Surface 18,                             !- Name
  RoofCeiling,                            !- Surface Type
  ,                                       !- Construction Name
  {e1d4e368-d43b-4437-83e5-900921458247}, !- Space Name
  Outdoors,                               !- Outside Boundary Condition
  ,                                       !- Outside Boundary Condition Object
  SunExposed,                             !- Sun Exposure
  WindExposed,                            !- Wind Exposure
  ,                                       !- View Factor to Ground
  ,                                       !- Number of Vertices
  1.77635683940025e-14, 11.2916164657906, 4, !- X,Y,Z Vertex 1 {m}
  1.77635683940025e-14, 0, 4,             !- X,Y,Z Vertex 2 {m}
  3.00000000000002, -3, 4,                !- X,Y,Z Vertex 3 {m}
  3.00000000000002, 14.2916164657906, 4;  !- X,Y,Z Vertex 4 {m}

OS:Space,
  {7584f0c1-f625-4cdb-801a-9db7fe44a45a}, !- Handle
  Story 1 South Perimeter Space,          !- Name
  ,                                       !- Space Type Name
  ,                                       !- Default Construction Set Name
  ,                                       !- Default Schedule Set Name
  -0,                                     !- Direction of Relative North {deg}
  0,                                      !- X Origin {m}
  0,                                      !- Y Origin {m}
  0,                                      !- Z Origin {m}
  {cfe061d6-f312-430f-8b12-2d8fea36a4ae}, !- Building Story Name
  {4bcd92f5-a4c0-476b-a11e-ae7fe943e042}; !- Thermal Zone Name

OS:Surface,
  {297ab378-f1d5-4089-9282-74e02f3b942e}, !- Handle
  Surface 19,                             !- Name
  Floor,                                  !- Surface Type
  ,                                       !- Construction Name
  {7584f0c1-f625-4cdb-801a-9db7fe44a45a}, !- Space Name
  Ground,                                 !- Outside Boundary Condition
  ,                                       !- Outside Boundary Condition Object
  NoSun,                                  !- Sun Exposure
  NoWind,                                 !- Wind Exposure
  ,                                       !- View Factor to Ground
  ,                                       !- Number of Vertices
  17.2916164657906, 0, 0,                 !- X,Y,Z Vertex 1 {m}
  0, 0, 0,                                !- X,Y,Z Vertex 2 {m}
  3, 3, 0,                                !- X,Y,Z Vertex 3 {m}
  14.2916164657906, 3, 0;                 !- X,Y,Z Vertex 4 {m}

OS:Surface,
  {81cdd1a2-6bd4-4f13-8cc6-4b14f8663aee}, !- Handle
  Surface 20,                             !- Name
  Wall,                                   !- Surface Type
  ,                                       !- Construction Name
  {7584f0c1-f625-4cdb-801a-9db7fe44a45a}, !- Space Name
  Outdoors,                               !- Outside Boundary Condition
  ,                                       !- Outside Boundary Condition Object
  SunExposed,                             !- Sun Exposure
  WindExposed,                            !- Wind Exposure
  ,                                       !- View Factor to Ground
  ,                                       !- Number of Vertices
  0, 0, 4,                                !- X,Y,Z Vertex 1 {m}
  0, 0, 0,                                !- X,Y,Z Vertex 2 {m}
  17.2916164657906, 0, 0,                 !- X,Y,Z Vertex 3 {m}
  17.2916164657906, 0, 4;                 !- X,Y,Z Vertex 4 {m}

OS:Surface,
  {9793dee4-e4f3-41c3-8d41-6bcf2a0678f2}, !- Handle
  Surface 21,                             !- Name
  Wall,                                   !- Surface Type
  ,                                       !- Construction Name
  {7584f0c1-f625-4cdb-801a-9db7fe44a45a}, !- Space Name
  Surface,                                !- Outside Boundary Condition
  {6ec525df-1201-4b4e-839c-6346b0558761}, !- Outside Boundary Condition Object
  NoSun,                                  !- Sun Exposure
  NoWind,                                 !- Wind Exposure
  ,                                       !- View Factor to Ground
  ,                                       !- Number of Vertices
  3, 3, 4,                                !- X,Y,Z Vertex 1 {m}
  3, 3, 0,                                !- X,Y,Z Vertex 2 {m}
  0, 0, 0,                                !- X,Y,Z Vertex 3 {m}
  0, 0, 4;                                !- X,Y,Z Vertex 4 {m}

OS:Surface,
  {b04751f3-adfb-41d0-b90f-bdb3a639675f}, !- Handle
  Surface 22,                             !- Name
  Wall,                                   !- Surface Type
  ,                                       !- Construction Name
  {7584f0c1-f625-4cdb-801a-9db7fe44a45a}, !- Space Name
  Surface,                                !- Outside Boundary Condition
  {b8669fcb-1c28-4793-91c9-1a8a9efb7b68}, !- Outside Boundary Condition Object
  NoSun,                                  !- Sun Exposure
  NoWind,                                 !- Wind Exposure
  ,                                       !- View Factor to Ground
  ,                                       !- Number of Vertices
  14.2916164657906, 3, 4,                 !- X,Y,Z Vertex 1 {m}
  14.2916164657906, 3, 0,                 !- X,Y,Z Vertex 2 {m}
  3, 3, 0,                                !- X,Y,Z Vertex 3 {m}
  3, 3, 4;                                !- X,Y,Z Vertex 4 {m}

OS:Surface,
  {792ee6c7-0156-4f74-bb0d-f96f99660304}, !- Handle
  Surface 23,                             !- Name
  Wall,                                   !- Surface Type
  ,                                       !- Construction Name
  {7584f0c1-f625-4cdb-801a-9db7fe44a45a}, !- Space Name
  Surface,                                !- Outside Boundary Condition
  {dfb88acd-6d0e-472c-bff8-9d6b50b2800e}, !- Outside Boundary Condition Object
  NoSun,                                  !- Sun Exposure
  NoWind,                                 !- Wind Exposure
  ,                                       !- View Factor to Ground
  ,                                       !- Number of Vertices
  17.2916164657906, 0, 4,                 !- X,Y,Z Vertex 1 {m}
  17.2916164657906, 0, 0,                 !- X,Y,Z Vertex 2 {m}
  14.2916164657906, 3, 0,                 !- X,Y,Z Vertex 3 {m}
  14.2916164657906, 3, 4;                 !- X,Y,Z Vertex 4 {m}

OS:Surface,
  {5e397e7e-3648-4212-b139-64cb1289947d}, !- Handle
  Surface 24,                             !- Name
  RoofCeiling,                            !- Surface Type
  ,                                       !- Construction Name
  {7584f0c1-f625-4cdb-801a-9db7fe44a45a}, !- Space Name
  Outdoors,                               !- Outside Boundary Condition
  ,                                       !- Outside Boundary Condition Object
  SunExposed,                             !- Sun Exposure
  WindExposed,                            !- Wind Exposure
  ,                                       !- View Factor to Ground
  ,                                       !- Number of Vertices
  14.2916164657906, 3, 4,                 !- X,Y,Z Vertex 1 {m}
  3, 3, 4,                                !- X,Y,Z Vertex 2 {m}
  0, 0, 4,                                !- X,Y,Z Vertex 3 {m}
  17.2916164657906, 0, 4;                 !- X,Y,Z Vertex 4 {m}

OS:Space,
  {bfff9ad7-92fe-48d2-b246-221916d00a2c}, !- Handle
  Story 1 Core Space,                     !- Name
  ,                                       !- Space Type Name
  ,                                       !- Default Construction Set Name
  ,                                       !- Default Schedule Set Name
  -0,                                     !- Direction of Relative North {deg}
  3,                                      !- X Origin {m}
  3,                                      !- Y Origin {m}
  0,                                      !- Z Origin {m}
  {cfe061d6-f312-430f-8b12-2d8fea36a4ae}, !- Building Story Name
  {e84804e4-db85-4a52-83c4-e62539b768c3}; !- Thermal Zone Name

OS:Surface,
  {2c6e93ce-5075-4a3c-aaff-6aa45b8c2791}, !- Handle
  Surface 25,                             !- Name
  Floor,                                  !- Surface Type
  ,                                       !- Construction Name
  {bfff9ad7-92fe-48d2-b246-221916d00a2c}, !- Space Name
  Ground,                                 !- Outside Boundary Condition
  ,                                       !- Outside Boundary Condition Object
  NoSun,                                  !- Sun Exposure
  NoWind,                                 !- Wind Exposure
  ,                                       !- View Factor to Ground
  ,                                       !- Number of Vertices
  0, 0, 0,                                !- X,Y,Z Vertex 1 {m}
  0, 11.2916164657906, 0,                 !- X,Y,Z Vertex 2 {m}
  11.2916164657906, 11.2916164657906, 0,  !- X,Y,Z Vertex 3 {m}
  11.2916164657906, 0, 0;                 !- X,Y,Z Vertex 4 {m}

OS:Surface,
  {69afee08-7981-4944-b02f-133c53c6b153}, !- Handle
  Surface 26,                             !- Name
  Wall,                                   !- Surface Type
  ,                                       !- Construction Name
  {bfff9ad7-92fe-48d2-b246-221916d00a2c}, !- Space Name
  Surface,                                !- Outside Boundary Condition
  {6654d0dc-a2eb-4540-9db3-4fcef81d7685}, !- Outside Boundary Condition Object
  NoSun,                                  !- Sun Exposure
  NoWind,                                 !- Wind Exposure
  ,                                       !- View Factor to Ground
  ,                                       !- Number of Vertices
  0, 11.2916164657906, 4,                 !- X,Y,Z Vertex 1 {m}
  0, 11.2916164657906, 0,                 !- X,Y,Z Vertex 2 {m}
  0, 0, 0,                                !- X,Y,Z Vertex 3 {m}
  0, 0, 4;                                !- X,Y,Z Vertex 4 {m}

OS:Surface,
  {81c6bdd6-d40b-4d78-acfc-f7254ffc6350}, !- Handle
  Surface 27,                             !- Name
  Wall,                                   !- Surface Type
  ,                                       !- Construction Name
  {bfff9ad7-92fe-48d2-b246-221916d00a2c}, !- Space Name
  Surface,                                !- Outside Boundary Condition
  {731437b4-28ad-449b-90f6-c496d57dab74}, !- Outside Boundary Condition Object
  NoSun,                                  !- Sun Exposure
  NoWind,                                 !- Wind Exposure
  ,                                       !- View Factor to Ground
  ,                                       !- Number of Vertices
  11.2916164657906, 11.2916164657906, 4,  !- X,Y,Z Vertex 1 {m}
  11.2916164657906, 11.2916164657906, 0,  !- X,Y,Z Vertex 2 {m}
  0, 11.2916164657906, 0,                 !- X,Y,Z Vertex 3 {m}
  0, 11.2916164657906, 4;                 !- X,Y,Z Vertex 4 {m}

OS:Surface,
  {91466e2c-0c7f-4988-9578-6279c19f0079}, !- Handle
  Surface 28,                             !- Name
  Wall,                                   !- Surface Type
  ,                                       !- Construction Name