
OS:Version,
  {3c54dc68-f99f-4e72-9086-e231a5e3ca55}, !- Handle
  0.10.0;                                 !- Version Identifier

OS:BuildingStory,
  {e02732bb-7773-41d6-9c52-3b4b023c9b81}, !- Handle
  Story 1,                                !- Name
  0,                                      !- Nominal Z Coordinate {m}
  4,                                      !- Nominal Floor to Floor Height {m}
  ,                                       !- Default Construction Set Name
  ,                                       !- Default Schedule Set Name
  ;                                       !- Group Rendering Name

OS:Space,
  {dc00ebf5-a47b-4b7e-9cbb-e27d6943b391}, !- Handle
  Story 1 West Perimeter Space,           !- Name
  ,                                       !- Space Type Name
  ,                                       !- Default Construction Set Name
  ,                                       !- Default Schedule Set Name
  -0,                                     !- Direction of Relative North {deg}
  0,                                      !- X Origin {m}
  0,                                      !- Y Origin {m}
  0,                                      !- Z Origin {m}
  {e02732bb-7773-41d6-9c52-3b4b023c9b81}, !- Building Story Name
  {e141fd33-7da1-4dab-8323-25f57e0b2fff}; !- Thermal Zone Name

OS:Surface,
  {50bada60-f552-4131-affd-74f07ca47226}, !- Handle
  Surface 1,                              !- Name
  Floor,                                  !- Surface Type
  ,                                       !- Construction Name
  {dc00ebf5-a47b-4b7e-9cbb-e27d6943b391}, !- Space Name
  Ground,                                 !- Outside Boundary Condition
  ,                                       !- Outside Boundary Condition Object
  NoSun,                                  !- Sun Exposure
  NoWind,                                 !- Wind Exposure
  ,                                       !- View Factor to Ground
  ,                                       !- Number of Vertices
  0, 0, 0,                                !- X,Y,Z Vertex 1 {m}
  0, 19.9749843554382, 0,                 !- X,Y,Z Vertex 2 {m}
  3, 16.9749843554382, 0,                 !- X,Y,Z Vertex 3 {m}
  3, 3, 0;                                !- X,Y,Z Vertex 4 {m}

OS:Surface,
  {72a13bbc-2bf9-4016-87d5-e2428d42bf60}, !- Handle
  Surface 2,                              !- Name
  Wall,                                   !- Surface Type
  ,                                       !- Construction Name
  {dc00ebf5-a47b-4b7e-9cbb-e27d6943b391}, !- Space Name
  Outdoors,                               !- Outside Boundary Condition
  ,                                       !- Outside Boundary Condition Object
  SunExposed,                             !- Sun Exposure
  WindExposed,                            !- Wind Exposure
  ,                                       !- View Factor to Ground
  ,                                       !- Number of Vertices
  0, 19.9749843554382, 4,                 !- X,Y,Z Vertex 1 {m}
  0, 19.9749843554382, 0,                 !- X,Y,Z Vertex 2 {m}
  0, 0, 0,                                !- X,Y,Z Vertex 3 {m}
  0, 0, 4;                                !- X,Y,Z Vertex 4 {m}

OS:Surface,
  {b2d1a539-cc98-43bf-b8c7-6cc2c45fb054}, !- Handle
  Surface 3,                              !- Name
  Wall,                                   !- Surface Type
  ,                                       !- Construction Name
  {dc00ebf5-a47b-4b7e-9cbb-e27d6943b391}, !- Space Name
  Surface,                                !- Outside Boundary Condition
  {5aaa997a-065b-4836-bef4-cf5e2f457d21}, !- Outside Boundary Condition Object
  NoSun,                                  !- Sun Exposure
  NoWind,                                 !- Wind Exposure
  ,                                       !- View Factor to Ground
  ,                                       !- Number of Vertices
  3, 16.9749843554382, 4,                 !- X,Y,Z Vertex 1 {m}
  3, 16.9749843554382, 0,                 !- X,Y,Z Vertex 2 {m}
  0, 19.9749843554382, 0,                 !- X,Y,Z Vertex 3 {m}
  0, 19.9749843554382, 4;                 !- X,Y,Z Vertex 4 {m}

OS:Surface,
  {7b369728-9f5f-4914-83e6-bda6f92d074c}, !- Handle
  Surface 4,                              !- Name
  Wall,                                   !- Surface Type
  ,                                       !- Construction Name
  {dc00ebf5-a47b-4b7e-9cbb-e27d6943b391}, !- Space Name
  Surface,                                !- Outside Boundary Condition
  {1cd2e939-a79f-41cc-8adc-4e7f9fda2929}, !- Outside Boundary Condition Object
  NoSun,                                  !- Sun Exposure
  NoWind,                                 !- Wind Exposure
  ,                                       !- View Factor to Ground
  ,                                       !- Number of Vertices
  3, 3, 4,                                !- X,Y,Z Vertex 1 {m}
  3, 3, 0,                                !- X,Y,Z Vertex 2 {m}
  3, 16.9749843554382, 0,                 !- X,Y,Z Vertex 3 {m}
  3, 16.9749843554382, 4;                 !- X,Y,Z Vertex 4 {m}

OS:Surface,
  {729a298f-034c-4890-ae6f-b07068036d19}, !- Handle
  Surface 5,                              !- Name
  Wall,                                   !- Surface Type
  ,                                       !- Construction Name
  {dc00ebf5-a47b-4b7e-9cbb-e27d6943b391}, !- Space Name
  Surface,                                !- Outside Boundary Condition
  {ad75b11b-5e0f-458f-9e6a-e3cc7a804a10}, !- Outside Boundary Condition Object
  NoSun,                                  !- Sun Exposure
  NoWind,                                 !- Wind Exposure
  ,                                       !- View Factor to Ground
  ,                                       !- Number of Vertices
  0, 0, 4,                                !- X,Y,Z Vertex 1 {m}
  0, 0, 0,                                !- X,Y,Z Vertex 2 {m}
  3, 3, 0,                                !- X,Y,Z Vertex 3 {m}
  3, 3, 4;                                !- X,Y,Z Vertex 4 {m}

OS:Surface,
  {e2e24456-b400-433b-a169-646fb110a9ff}, !- Handle
  Surface 6,                              !- Name
  RoofCeiling,                            !- Surface Type
  ,                                       !- Construction Name
  {dc00ebf5-a47b-4b7e-9cbb-e27d6943b391}, !- Space Name
  Outdoors,                               !- Outside Boundary Condition
  ,                                       !- Outside Boundary Condition Object
  SunExposed,                             !- Sun Exposure
  WindExposed,                            !- Wind Exposure
  ,                                       !- View Factor to Ground
  ,                                       !- Number of Vertices
  3, 3, 4,                                !- X,Y,Z Vertex 1 {m}
  3, 16.9749843554382, 4,                 !- X,Y,Z Vertex 2 {m}
  0, 19.9749843554382, 4,                 !- X,Y,Z Vertex 3 {m}
  0, 0, 4;                                !- X,Y,Z Vertex 4 {m}

OS:Space,
  {dca8807c-a230-489a-a14e-0b60bb8ac09a}, !- Handle
  Story 1 North Perimeter Space,          !- Name
  ,                                       !- Space Type Name
  ,                                       !- Default Construction Set Name
  ,                                       !- Default Schedule Set Name
  -0,                                     !- Direction of Relative North {deg}
  3,                                      !- X Origin {m}
  16.9749843554382,                       !- Y Origin {m}
  0,                                      !- Z Origin {m}
  {e02732bb-7773-41d6-9c52-3b4b023c9b81}, !- Building Story Name
  {731aede8-74fd-4831-b705-0b13fec7db82}; !- Thermal Zone Name

OS:Surface,
  {58ce729e-e4b4-4c34-abd1-31c0e435b972}, !- Handle
  Surface 7,                              !- Name
  Floor,                                  !- Surface Type
  ,                                       !- Construction Name
  {dca8807c-a230-489a-a14e-0b60bb8ac09a}, !- Space Name
  Ground,                                 !- Outside Boundary Condition
  ,                                       !- Outside Boundary Condition Object
  NoSun,                                  !- Sun Exposure
  NoWind,                                 !- Wind Exposure
  ,                                       !- View Factor to Ground
  ,                                       !- Number of Vertices
  -3, 3.00000000000002, 0,                !- X,Y,Z Vertex 1 {m}
  16.9749843554382, 3.00000000000002, 0,  !- X,Y,Z Vertex 2 {m}
  13.9749843554382, 2.1316282072803e-14, 0, !- X,Y,Z Vertex 3 {m}
  0, 2.1316282072803e-14, 0;              !- X,Y,Z Vertex 4 {m}

OS:Surface,
  {fa3c3c6a-96c9-400b-80ff-4731c71acfda}, !- Handle
  Surface 8,                              !- Name
  Wall,                                   !- Surface Type
  ,                                       !- Construction Name
  {dca8807c-a230-489a-a14e-0b60bb8ac09a}, !- Space Name
  Outdoors,                               !- Outside Boundary Condition
  ,                                       !- Outside Boundary Condition Object
  SunExposed,                             !- Sun Exposure
  WindExposed,                            !- Wind Exposure
  ,                                       !- View Factor to Ground
  ,                                       !- Number of Vertices
  16.9749843554382, 3.00000000000002, 4,  !- X,Y,Z Vertex 1 {m}
  16.9749843554382, 3.00000000000002, 0,  !- X,Y,Z Vertex 2 {m}
  -3, 3.00000000000002, 0,                !- X,Y,Z Vertex 3 {m}
  -3, 3.00000000000002, 4;                !- X,Y,Z Vertex 4 {m}

OS:Surface,
  {224e764f-3585-44c3-a392-362e5327579c}, !- Handle
  Surface 9,                              !- Name
  Wall,                                   !- Surface Type
  ,                                       !- Construction Name
  {dca8807c-a230-489a-a14e-0b60bb8ac09a}, !- Space Name
  Surface,                                !- Outside Boundary Condition
  {99606ebd-aa61-4a20-8e26-5f5fe88bff81}, !- Outside Boundary Condition Object
  NoSun,                                  !- Sun Exposure
  NoWind,                                 !- Wind Exposure
  ,                                       !- View Factor to Ground
  ,                                       !- Number of Vertices
  13.9749843554382, 2.1316282072803e-14, 4, !- X,Y,Z Vertex 1 {m}
  13.9749843554382, 2.1316282072803e-14, 0, !- X,Y,Z Vertex 2 {m}
  16.9749843554382, 3.00000000000002, 0,  !- X,Y,Z Vertex 3 {m}
  16.9749843554382, 3.00000000000002, 4;  !- X,Y,Z Vertex 4 {m}

OS:Surface,
  {ca90404f-7218-4b9f-a888-7598ca33d644}, !- Handle
  Surface 10,                             !- Name
  Wall,                                   !- Surface Type
  ,                                       !- Construction Name
  {dca8807c-a230-489a-a14e-0b60bb8ac09a}, !- Space Name
  Surface,                                !- Outside Boundary Condition
  {6236b1b6-cf76-4a1e-9a77-46d7cd3e66a5}, !- Outside Boundary Condition Object
  NoSun,                                  !- Sun Exposure
  NoWind,                                 !- Wind Exposure
  ,                                       !- View Factor to Ground
  ,                                       !- Number of Vertices
  0, 2.1316282072803e-14, 4,              !- X,Y,Z Vertex 1 {m}
  0, 2.1316282072803e-14, 0,              !- X,Y,Z Vertex 2 {m}
  13.9749843554382, 2.1316282072803e-14, 0, !- X,Y,Z Vertex 3 {m}
  13.9749843554382, 2.1316282072803e-14, 4; !- X,Y,Z Vertex 4 {m}

OS:Surface,
  {5aaa997a-065b-4836-bef4-cf5e2f457d21}, !- Handle
  Surface 11,                             !- Name
  Wall,                                   !- Surface Type
  ,                                       !- Construction Name
  {dca8807c-a230-489a-a14e-0b60bb8ac09a}, !- Space Name
  Surface,                                !- Outside Boundary Condition
  {b2d1a539-cc98-43bf-b8c7-6cc2c45fb054}, !- Outside Boundary Condition Object
  NoSun,                                  !- Sun Exposure
  NoWind,                                 !- Wind Exposure
  ,                                       !- View Factor to Ground
  ,                                       !- Number of Vertices
  -3, 3.00000000000002, 4,                !- X,Y,Z Vertex 1 {m}
  -3, 3.00000000000002, 0,                !- X,Y,Z Vertex 2 {m}
  0, 2.1316282072803e-14, 0,              !- X,Y,Z Vertex 3 {m}
  0, 2.1316282072803e-14, 4;              !- X,Y,Z Vertex 4 {m}

OS:Surface,
  {04f9b1a7-2288-44e6-9442-c895d88fa416}, !- Handle
  Surface 12,                             !- Name
  RoofCeiling,                            !- Surface Type
  ,                                       !- Construction Name
  {dca8807c-a230-489a-a14e-0b60bb8ac09a}, !- Space Name
  Outdoors,                               !- Outside Boundary Condition
  ,                                       !- Outside Boundary Condition Object
  SunExposed,                             !- Sun Exposure
  WindExposed,                            !- Wind Exposure
  ,                                       !- View Factor to Ground
  ,                                       !- Number of Vertices
  0, 2.1316282072803e-14, 4,              !- X,Y,Z Vertex 1 {m}
  13.9749843554382, 2.1316282072803e-14, 4, !- X,Y,Z Vertex 2 {m}
  16.9749843554382, 3.00000000000002, 4,  !- X,Y,Z Vertex 3 {m}
  -3, 3.00000000000002, 4;                !- X,Y,Z Vertex 4 {m}

OS:Space,
  {9145fe9d-bacc-41af-bf2d-33a99232adad}, !- Handle
  Story 1 East Perimeter Space,           !- Name
  ,                                       !- Space Type Name
  ,                                       !- Default Construction Set Name
  ,                                       !- Default Schedule Set Name
  -0,                                     !- Direction of Relative North {deg}
  16.9749843554382,                       !- X Origin {m}
  3,                                      !- Y Origin {m}
  0,                                      !- Z Origin {m}
  {e02732bb-7773-41d6-9c52-3b4b023c9b81}, !- Building Story Name
  {93bb2591-93cf-4fdf-9750-1977be973be2}; !- Thermal Zone Name

OS:Surface,
  {7d1fe7b0-1345-4390-ae21-801cc1c39a1f}, !- Handle
  Surface 13,                             !- Name
  Floor,                                  !- Surface Type
  ,                                       !- Construction Name
  {9145fe9d-bacc-41af-bf2d-33a99232adad}, !- Space Name
  Ground,                                 !- Outside Boundary Condition
  ,                                       !- Outside Boundary Condition Object
  NoSun,                                  !- Sun Exposure
  NoWind,                                 !- Wind Exposure
  ,                                       !- View Factor to Ground
  ,                                       !- Number of Vertices
  3.00000000000002, 16.9749843554382, 0,  !- X,Y,Z Vertex 1 {m}
  3.00000000000002, -3, 0,                !- X,Y,Z Vertex 2 {m}
  2.1316282072803e-14, 0, 0,              !- X,Y,Z Vertex 3 {m}
  2.1316282072803e-14, 13.9749843554382, 0; !- X,Y,Z Vertex 4 {m}

OS:Surface,
  {901a4b0a-9f0f-4b25-9a09-a4a1b32317f2}, !- Handle
  Surface 14,                             !- Name
  Wall,                                   !- Surface Type
  ,                                       !- Construction Name
  {9145fe9d-bacc-41af-bf2d-33a99232adad}, !- Space Name
  Outdoors,                               !- Outside Boundary Condition
  ,                                       !- Outside Boundary Condition Object
  SunExposed,                             !- Sun Exposure
  WindExposed,                            !- Wind Exposure
  ,                                       !- View Factor to Ground
  ,                                       !- Number of Vertices
  3.00000000000002, -3, 4,                !- X,Y,Z Vertex 1 {m}
  3.00000000000002, -3, 0,                !- X,Y,Z Vertex 2 {m}
  3.00000000000002, 16.9749843554382, 0,  !- X,Y,Z Vertex 3 {m}
  3.00000000000002, 16.9749843554382, 4;  !- X,Y,Z Vertex 4 {m}

OS:Surface,
  {65b17217-3eaf-45ca-a4c8-d9c5c9935894}, !- Handle
  Surface 15,                             !- Name
  Wall,                                   !- Surface Type
  ,                                       !- Construction Name
  {9145fe9d-bacc-41af-bf2d-33a99232adad}, !- Space Name
  Surface,                                !- Outside Boundary Condition
  {4de6b604-3ff9-402c-ac6f-cdc706014439}, !- Outside Boundary Condition Object
  NoSun,                                  !- Sun Exposure
  NoWind,                                 !- Wind Exposure
  ,                                       !- View Factor to Ground
  ,                                       !- Number of Vertices
  2.1316282072803e-14, 0, 4,              !- X,Y,Z Vertex 1 {m}
  2.1316282072803e-14, 0, 0,              !- X,Y,Z Vertex 2 {m}
  3.00000000000002, -3, 0,                !- X,Y,Z Vertex 3 {m}
  3.00000000000002, -3, 4;                !- X,Y,Z Vertex 4 {m}

OS:Surface,
  {41a7cdcd-11c8-40b4-86f2-6911ed026a71}, !- Handle
  Surface 16,                             !- Name
  Wall,                                   !- Surface Type
  ,                                       !- Construction Name
  {9145fe9d-bacc-41af-bf2d-33a99232adad}, !- Space Name
  Surface,                                !- Outside Boundary Condition
  {6f49feda-2ebb-4c9c-8554-359c6281031d}, !- Outside Boundary Condition Object
  NoSun,                                  !- Sun Exposure
  NoWind,                                 !- Wind Exposure
  ,                                       !- View Factor to Ground
  ,                                       !- Number of Vertices
  2.1316282072803e-14, 13.9749843554382, 4, !- X,Y,Z Vertex 1 {m}
  2.1316282072803e-14, 13.9749843554382, 0, !- X,Y,Z Vertex 2 {m}
  2.1316282072803e-14, 0, 0,              !- X,Y,Z Vertex 3 {m}
  2.1316282072803e-14, 0, 4;              !- X,Y,Z Vertex 4 {m}

OS:Surface,
  {99606ebd-aa61-4a20-8e26-5f5fe88bff81}, !- Handle
  Surface 17,                             !- Name
  Wall,                                   !- Surface Type
  ,                                       !- Construction Name
  {9145fe9d-bacc-41af-bf2d-33a99232adad}, !- Space Name
  Surface,                                !- Outside Boundary Condition
  {224e764f-3585-44c3-a392-362e5327579c}, !- Outside Boundary Condition Object
  NoSun,                                  !- Sun Exposure
  NoWind,                                 !- Wind Exposure
  ,                                       !- View Factor to Ground
  ,                                       !- Number of Vertices
  3.00000000000002, 16.9749843554382, 4,  !- X,Y,Z Vertex 1 {m}
  3.00000000000002, 16.9749843554382, 0,  !- X,Y,Z Vertex 2 {m}
  2.1316282072803e-14, 13.9749843554382, 0, !- X,Y,Z Vertex 3 {m}
  2.1316282072803e-14, 13.9749843554382, 4; !- X,Y,Z Vertex 4 {m}

OS:Surface,
  {d8f64f73-a00c-4890-b98e-4612c274775c}, !- Handle
  Surface 18,                             !- Name
  RoofCeiling,                            !- Surface Type
  ,                                       !- Construction Name
  {9145fe9d-bacc-41af-bf2d-33a99232adad}, !- Space Name
  Outdoors,                               !- Outside Boundary Condition
  ,                                       !- Outside Boundary Condition Object
  SunExposed,                             !- Sun Exposure
  WindExposed,                            !- Wind Exposure
  ,                                       !- View Factor to Ground
  ,                                       !- Number of Vertices
  2.1316282072803e-14, 13.9749843554382, 4, !- X,Y,Z Vertex 1 {m}
  2.1316282072803e-14, 0, 4,              !- X,Y,Z Vertex 2 {m}
  3.00000000000002, -3, 4,                !- X,Y,Z Vertex 3 {m}
  3.00000000000002, 16.9749843554382, 4;  !- X,Y,Z Vertex 4 {m}

OS:Space,
  {19cacc6c-526e-400f-b5e0-e4dd4063b934}, !- Handle
  Story 1 South Perimeter Space,          !- Name
  ,                                       !- Space Type Name
  ,                                       !- Default Construction Set Name
  ,                                       !- Default Schedule Set Name
  -0,                                     !- Direction of Relative North {deg}
  0,                                      !- X Origin {m}
  0,                                      !- Y Origin {m}
  0,                                      !- Z Origin {m}
  {e02732bb-7773-41d6-9c52-3b4b023c9b81}, !- Building Story Name
  {c2b3b0bb-a81e-4ae0-bfd1-439ce0fb0e46}; !- Thermal Zone Name

OS:Surface,
  {bda5863b-433c-43e2-a0a8-4f3af7f7f6be}, !- Handle
  Surface 19,                             !- Name
  Floor,                                  !- Surface Type
  ,                                       !- Construction Name
  {19cacc6c-526e-400f-b5e0-e4dd4063b934}, !- Space Name
  Ground,                                 !- Outside Boundary Condition
  ,                                       !- Outside Boundary Condition Object
  NoSun,                                  !- Sun Exposure
  NoWind,                                 !- Wind Exposure
  ,                                       !- View Factor to Ground
  ,                                       !- Number of Vertices
  19.9749843554382, 0, 0,                 !- X,Y,Z Vertex 1 {m}
  0, 0, 0,                                !- X,Y,Z Vertex 2 {m}
  3, 3, 0,                                !- X,Y,Z Vertex 3 {m}
  16.9749843554382, 3, 0;                 !- X,Y,Z Vertex 4 {m}

OS:Surface,
  {48f97c34-808f-456e-abc5-3727e386dc9f}, !- Handle
  Surface 20,                             !- Name
  Wall,                                   !- Surface Type
  ,                                       !- Construction Name
  {19cacc6c-526e-400f-b5e0-e4dd4063b934}, !- Space Name
  Outdoors,                               !- Outside Boundary Condition
  ,                                       !- Outside Boundary Condition Object
  SunExposed,                             !- Sun Exposure
  WindExposed,                            !- Wind Exposure
  ,                                       !- View Factor to Ground
  ,                                       !- Number of Vertices
  0, 0, 4,                                !- X,Y,Z Vertex 1 {m}
  0, 0, 0,                                !- X,Y,Z Vertex 2 {m}
  19.9749843554382, 0, 0,                 !- X,Y,Z Vertex 3 {m}
  19.9749843554382, 0, 4;                 !- X,Y,Z Vertex 4 {m}

OS:Surface,
  {ad75b11b-5e0f-458f-9e6a-e3cc7a804a10}, !- Handle
  Surface 21,                             !- Name
  Wall,                                   !- Surface Type
  ,                                       !- Construction Name
  {19cacc6c-526e-400f-b5e0-e4dd4063b934}, !- Space Name
  Surface,                                !- Outside Boundary Condition
  {729a298f-034c-4890-ae6f-b07068036d19}, !- Outside Boundary Condition Object
  NoSun,                                  !- Sun Exposure
  NoWind,                                 !- Wind Exposure
  ,                                       !- View Factor to Ground
  ,                                       !- Number of Vertices
  3, 3, 4,                                !- X,Y,Z Vertex 1 {m}
  3, 3, 0,                                !- X,Y,Z Vertex 2 {m}
  0, 0, 0,                                !- X,Y,Z Vertex 3 {m}
  0, 0, 4;                                !- X,Y,Z Vertex 4 {m}

OS:Surface,
  {7cdcc66c-d38e-4c00-9f15-42b08a095286}, !- Handle
  Surface 22,                             !- Name
  Wall,                                   !- Surface Type
  ,                                       !- Construction Name
  {19cacc6c-526e-400f-b5e0-e4dd4063b934}, !- Space Name
  Surface,                                !- Outside Boundary Condition
  {522b5486-df72-49a2-9060-550c5239c4de}, !- Outside Boundary Condition Object
  NoSun,                                  !- Sun Exposure
  NoWind,                                 !- Wind Exposure
  ,                                       !- View Factor to Ground
  ,                                       !- Number of Vertices
  16.9749843554382, 3, 4,                 !- X,Y,Z Vertex 1 {m}
  16.9749843554382, 3, 0,                 !- X,Y,Z Vertex 2 {m}
  3, 3, 0,                                !- X,Y,Z Vertex 3 {m}
  3, 3, 4;                                !- X,Y,Z Vertex 4 {m}

OS:Surface,
  {4de6b604-3ff9-402c-ac6f-cdc706014439}, !- Handle
  Surface 23,                             !- Name
  Wall,                                   !- Surface Type
  ,                                       !- Construction Name
  {19cacc6c-526e-400f-b5e0-e4dd4063b934}, !- Space Name
  Surface,                                !- Outside Boundary Condition
  {65b17217-3eaf-45ca-a4c8-d9c5c9935894}, !- Outside Boundary Condition Object
  NoSun,                                  !- Sun Exposure
  NoWind,                                 !- Wind Exposure
  ,                                       !- View Factor to Ground
  ,                                       !- Number of Vertices
  19.9749843554382, 0, 4,                 !- X,Y,Z Vertex 1 {m}
  19.9749843554382, 0, 0,                 !- X,Y,Z Vertex 2 {m}
  16.9749843554382, 3, 0,                 !- X,Y,Z Vertex 3 {m}
  16.9749843554382, 3, 4;                 !- X,Y,Z Vertex 4 {m}

OS:Surface,
  {d151766e-4110-404a-a5bf-8fe36163dd07}, !- Handle
  Surface 24,                             !- Name
  RoofCeiling,                            !- Surface Type
  ,                                       !- Construction Name
  {19cacc6c-526e-400f-b5e0-e4dd4063b934}, !- Space Name
  Outdoors,                               !- Outside Boundary Condition
  ,                                       !- Outside Boundary Condition Object
  SunExposed,                             !- Sun Exposure
  WindExposed,                            !- Wind Exposure
  ,                                       !- View Factor to Ground
  ,                                       !- Number of Vertices
  16.9749843554382, 3, 4,                 !- X,Y,Z Vertex 1 {m}
  3, 3, 4,                                !- X,Y,Z Vertex 2 {m}
  0, 0, 4,                                !- X,Y,Z Vertex 3 {m}
  19.9749843554382, 0, 4;                 !- X,Y,Z Vertex 4 {m}

OS:Space,
  {3e097699-2d11-4403-b04c-116b415616da}, !- Handle
  Story 1 Core Space,                     !- Name
  ,                                       !- Space Type Name
  ,                                       !- Default Construction Set Name
  ,                                       !- Default Schedule Set Name
  -0,                                     !- Direction of Relative North {deg}
  3,                                      !- X Origin {m}
  3,                                      !- Y Origin {m}
  0,                                      !- Z Origin {m}
  {e02732bb-7773-41d6-9c52-3b4b023c9b81}, !- Building Story Name
  {adee8205-dab8-4531-baa2-655c14aafd25}; !- Thermal Zone Name

OS:Surface,
  {240c4da6-534c-46be-ae02-ca3710566419}, !- Handle
  Surface 25,                             !- Name
  Floor,                                  !- Surface Type
  ,                                       !- Construction Name
  {3e097699-2d11-4403-b04c-116b415616da}, !- Space Name
  Ground,                                 !- Outside Boundary Condition
  ,                                       !- Outside Boundary Condition Object
  NoSun,                                  !- Sun Exposure
  NoWind,                                 !- Wind Exposure
  ,                                       !- View Factor to Ground
  ,                                       !- Number of Vertices
  0, 0, 0,                                !- X,Y,Z Vertex 1 {m}
  0, 13.9749843554382, 0,                 !- X,Y,Z Vertex 2 {m}
  13.9749843554382, 13.9749843554382, 0,  !- X,Y,Z Vertex 3 {m}
  13.9749843554382, 0, 0;                 !- X,Y,Z Vertex 4 {m}

OS:Surface,
  {1cd2e939-a79f-41cc-8adc-4e7f9fda2929}, !- Handle
  Surface 26,                             !- Name
  Wall,                                   !- Surface Type
  ,                                       !- Construction Name
  {3e097699-2d11-4403-b04c-116b415616da}, !- Space Name
  Surface,                                !- Outside Boundary Condition
  {7b369728-9f5f-4914-83e6-bda6f92d074c}, !- Outside Boundary Condition Object
  NoSun,                                  !- Sun Exposure
  NoWind,                                 !- Wind Exposure
  ,                                       !- View Factor to Ground
  ,                                       !- Number of Vertices
  0, 13.9749843554382, 4,                 !- X,Y,Z Vertex 1 {m}
  0, 13.9749843554382, 0,                 !- X,Y,Z Vertex 2 {m}
  0, 0, 0,                                !- X,Y,Z Vertex 3 {m}
  0, 0, 4;                                !- X,Y,Z Vertex 4 {m}

OS:Surface,
  {6236b1b6-cf76-4a1e-9a77-46d7cd3e66a5}, !- Handle
  Surface 27,                             !- Name
  Wall,                                   !- Surface Type
  ,                                       !- Construction Name
  {3e097699-2d11-4403-b04c-116b415616da}, !- Space Name
  Surface,                                !- Outside Boundary Condition
  {ca90404f-7218-4b9f-a888-7598ca33d644}, !- Outside Boundary Condition Object
  NoSun,                                  !- Sun Exposure
  NoWind,                                 !- Wind Exposure
  ,                                       !- View Factor to Ground
  ,                                       !- Number of Vertices
  13.9749843554382, 13.9749843554382, 4,  !- X,Y,Z Vertex 1 {m}
  13.9749843554382, 13.9749843554382, 0,  !- X,Y,Z Vertex 2 {m}
  0, 13.9749843554382, 0,                 !- X,Y,Z Vertex 3 {m}
  0, 13.9749843554382, 4;                 !- X,Y,Z Vertex 4 {m}

OS:Surface,
  {6f49feda-2ebb-4c9c-8554-359c6281031d}, !- Handle
  Surface 28,                             !- Name
  Wall,                                   !- Surface Type
  ,                                       !- Construction Name