
OS:Version,
  {cf97c7e6-4aed-4198-806c-38474891772b}, !- Handle
  0.10.0;                                 !- Version Identifier

OS:BuildingStory,
  {3c227ac8-54ac-41de-a195-b4ed82d1a864}, !- Handle
  Story 1,                                !- Name
  0,                                      !- Nominal Z Coordinate {m}
  4,                                      !- Nominal Floor to Floor Height {m}
  ,                                       !- Default Construction Set Name
  ,                                       !- Default Schedule Set Name
  ;                                       !- Group Rendering Name

OS:Space,
  {fed8fd29-d7dd-4dc7-bef1-af4c7a7de984}, !- Handle
  Story 1 West Perimeter Space,           !- Name
  ,                                       !- Space Type Name
  ,                                       !- Default Construction Set Name
  ,                                       !- Default Schedule Set Name
  -0,                                     !- Direction of Relative North {deg}
  0,                                      !- X Origin {m}
  0,                                      !- Y Origin {m}
  0,                                      !- Z Origin {m}
  {3c227ac8-54ac-41de-a195-b4ed82d1a864}, !- Building Story Name
  {e04ce89b-8043-4e96-80fc-323488342101}; !- Thermal Zone Name

OS:Surface,
  {89d45661-6452-407f-8c58-6ffe281b963c}, !- Handle
  Surface 1,                              !- Name
  Floor,                                  !- Surface Type
  ,                                       !- Construction Name
  {fed8fd29-d7dd-4dc7-bef1-af4c7a7de984}, !- Space Name
  Ground,                                 !- Outside Boundary Condition
  ,                                       !- Outside Boundary Condition Object
  NoSun,                                  !- Sun Exposure
  NoWind,                                 !- Wind Exposure
  ,                                       !- View Factor to Ground
  ,                                       !- Number of Vertices
  0, 0, 0,                                !- X,Y,Z Vertex 1 {m}
  0, 20.2731349327133, 0,                 !- X,Y,Z Vertex 2 {m}
  3, 17.2731349327133, 0,                 !- X,Y,Z Vertex 3 {m}
  3, 3, 0;                                !- X,Y,Z Vertex 4 {m}

OS:Surface,
  {b25e19aa-e496-4007-87ae-10ec90802d27}, !- Handle
  Surface 2,                              !- Name
  Wall,                                   !- Surface Type
  ,                                       !- Construction Name
  {fed8fd29-d7dd-4dc7-bef1-af4c7a7de984}, !- Space Name
  Outdoors,                               !- Outside Boundary Condition
  ,                                       !- Outside Boundary Condition Object
  SunExposed,                             !- Sun Exposure
  WindExposed,                            !- Wind Exposure
  ,                                       !- View Factor to Ground
  ,                                       !- Number of Vertices
  0, 20.2731349327133, 4,                 !- X,Y,Z Vertex 1 {m}
  0, 20.2731349327133, 0,                 !- X,Y,Z Vertex 2 {m}
  0, 0, 0,                                !- X,Y,Z Vertex 3 {m}
  0, 0, 4;                                !- X,Y,Z Vertex 4 {m}

OS:Surface,
  {3b8274b5-c03e-43ac-bbf4-2ec8907b74e9}, !- Handle
  Surface 3,                              !- Name
  Wall,                                   !- Surface Type
  ,                                       !- Construction Name
  {fed8fd29-d7dd-4dc7-bef1-af4c7a7de984}, !- Space Name
  Surface,                                !- Outside Boundary Condition
  {ba951095-77d5-4ca5-bb39-0a78fd8d53b3}, !- Outside Boundary Condition Object
  NoSun,                                  !- Sun Exposure
  NoWind,                                 !- Wind Exposure
  ,                                       !- View Factor to Ground
  ,                                       !- Number of Vertices
  3, 17.2731349327133, 4,                 !- X,Y,Z Vertex 1 {m}
  3, 17.2731349327133, 0,                 !- X,Y,Z Vertex 2 {m}
  0, 20.2731349327133, 0,                 !- X,Y,Z Vertex 3 {m}
  0, 20.2731349327133, 4;                 !- X,Y,Z Vertex 4 {m}

OS:Surface,
  {01558d17-f90d-453a-91c4-f584bd0e6fcf}, !- Handle
  Surface 4,                              !- Name
  Wall,                                   !- Surface Type
  ,                                       !- Construction Name
  {fed8fd29-d7dd-4dc7-bef1-af4c7a7de984}, !- Space Name
  Surface,                                !- Outside Boundary Condition
  {b312f89f-0ac4-41cb-a4e9-5363212084ef}, !- Outside Boundary Condition Object
  NoSun,                                  !- Sun Exposure
  NoWind,                                 !- Wind Exposure
  ,                                       !- View Factor to Ground
  ,                                       !- Number of Vertices
  3, 3, 4,                                !- X,Y,Z Vertex 1 {m}
  3, 3, 0,                                !- X,Y,Z Vertex 2 {m}
  3, 17.2731349327133, 0,                 !- X,Y,Z Vertex 3 {m}
  3, 17.2731349327133, 4;                 !- X,Y,Z Vertex 4 {m}

OS:Surface,
  {0ba1bd46-46c1-4cda-a0cc-a93111681bff}, !- Handle
  Surface 5,                              !- Name
  Wall,                                   !- Surface Type
  ,                                       !- Construction Name
  {fed8fd29-d7dd-4dc7-bef1-af4c7a7de984}, !- Space Name
  Surface,                                !- Outside Boundary Condition
  {d7dc7491-c988-4da9-9ee4-47cfe2a4cb8c}, !- Outside Boundary Condition Object
  NoSun,                                  !- Sun Exposure
  NoWind,                                 !- Wind Exposure
  ,                                       !- View Factor to Ground
  ,                                       !- Number of Vertices
  0, 0, 4,                                !- X,Y,Z Vertex 1 {m}
  0, 0, 0,                                !- X,Y,Z Vertex 2 {m}
  3, 3, 0,                                !- X,Y,Z Vertex 3 {m}
  3, 3, 4;                                !- X,Y,Z Vertex 4 {m}

OS:Surface,
  {5e8a4ed4-f154-4479-9b25-ff03f38cff4c}, !- Handle
  Surface 6,                              !- Name
  RoofCeiling,                            !- Surface Type
  ,                                       !- Construction Name
  {fed8fd29-d7dd-4dc7-bef1-af4c7a7de984}, !- Space Name
  Outdoors,                               !- Outside Boundary Condition
  ,                                       !- Outside Boundary Condition Object
  SunExposed,                             !- Sun Exposure
  WindExposed,                            !- Wind Exposure
  ,                                       !- View Factor to Ground
  ,                                       !- Number of Vertices
  3, 3, 4,                                !- X,Y,Z Vertex 1 {m}
  3, 17.2731349327133, 4,                 !- X,Y,Z Vertex 2 {m}
  0, 20.2731349327133, 4,                 !- X,Y,Z Vertex 3 {m}
  0, 0, 4;                                !- X,Y,Z Vertex 4 {m}

OS:Space,
  {41939841-5024-4779-8948-6f61a1f4286b}, !- Handle
  Story 1 North Perimeter Space,          !- Name
  ,                                       !- Space Type Name
  ,                                       !- Default Construction Set Name
  ,                                       !- Default Schedule Set Name
  -0,                                     !- Direction of Relative North {deg}
  3,                                      !- X Origin {m}
  17.2731349327133,                       !- Y Origin {m}
  0,                                      !- Z Origin {m}
  {3c227ac8-54ac-41de-a195-b4ed82d1a864}, !- Building Story Name
  {195af69e-3fd8-4167-bb2b-e8a4ccda3ea1}; !- Thermal Zone Name

OS:Surface,
  {d6ca3aa2-f9dd-48cd-8a0a-c17be078eccc}, !- Handle
  Surface 7,                              !- Name
  Floor,                                  !- Surface Type
  ,                                       !- Construction Name
  {41939841-5024-4779-8948-6f61a1f4286b}, !- Space Name
  Ground,                                 !- Outside Boundary Condition
  ,                                       !- Outside Boundary Condition Object
  NoSun,                                  !- Sun Exposure
  NoWind,                                 !- Wind Exposure
  ,                                       !- View Factor to Ground
  ,                                       !- Number of Vertices
  -3, 3.00000000000001, 0,                !- X,Y,Z Vertex 1 {m}
  17.2731349327133, 3.00000000000001, 0,  !- X,Y,Z Vertex 2 {m}
  14.2731349327133, 7.105427357601e-15, 0, !- X,Y,Z Vertex 3 {m}
  0, 7.105427357601e-15, 0;               !- X,Y,Z Vertex 4 {m}

OS:Surface,
  {d792c2fc-f142-4b7e-b0b3-42be7a62dbad}, !- Handle
  Surface 8,                              !- Name
  Wall,                                   !- Surface Type
  ,                                       !- Construction Name
  {41939841-5024-4779-8948-6f61a1f4286b}, !- Space Name
  Outdoors,                               !- Outside Boundary Condition
  ,                                       !- Outside Boundary Condition Object
  SunExposed,                             !- Sun Exposure
  WindExposed,                            !- Wind Exposure
  ,                                       !- View Factor to Ground
  ,                                       !- Number of Vertices
  17.2731349327133, 3.00000000000001, 4,  !- X,Y,Z Vertex 1 {m}
  17.2731349327133, 3.00000000000001, 0,  !- X,Y,Z Vertex 2 {m}
  -3, 3.00000000000001, 0,                !- X,Y,Z Vertex 3 {m}
  -3, 3.00000000000001, 4;                !- X,Y,Z Vertex 4 {m}

OS:Surface,
  {28088f21-124b-4626-9e60-bd6061941a8f}, !- Handle
  Surface 9,                              !- Name
  Wall,                                   !- Surface Type
  ,                                       !- Construction Name
  {41939841-5024-4779-8948-6f61a1f4286b}, !- Space Name
  Surface,                                !- Outside Boundary Condition
  {f3fa9a8a-c46d-47f0-806f-8bdf29818a97}, !- Outside Boundary Condition Object
  NoSun,                                  !- Sun Exposure
  NoWind,                                 !- Wind Exposure
  ,                                       !- View Factor to Ground
  ,                                       !- Number of Vertices
  14.2731349327133, 7.105427357601e-15, 4, !- X,Y,Z Vertex 1 {m}
  14.2731349327133, 7.105427357601e-15, 0, !- X,Y,Z Vertex 2 {m}
  17.2731349327133, 3.00000000000001, 0,  !- X,Y,Z Vertex 3 {m}
  17.2731349327133, 3.00000000000001, 4;  !- X,Y,Z Vertex 4 {m}

OS:Surface,
  {98769173-5128-4d4a-9009-5dce5504213e}, !- Handle
  Surface 10,                             !- Name
  Wall,                                   !- Surface Type
  ,                                       !- Construction Name
  {41939841-5024-4779-8948-6f61a1f4286b}, !- Space Name
  Surface,                                !- Outside Boundary Condition
  {d2662a05-befb-4d0e-a53e-e70075fc02b7}, !- Outside Boundary Condition Object
  NoSun,                                  !- Sun Exposure
  NoWind,                                 !- Wind Exposure
  ,                                       !- View Factor to Ground
  ,                                       !- Number of Vertices
  0, 7.105427357601e-15, 4,               !- X,Y,Z Vertex 1 {m}
  0, 7.105427357601e-15, 0,               !- X,Y,Z Vertex 2 {m}
  14.2731349327133, 7.105427357601e-15, 0, !- X,Y,Z Vertex 3 {m}
  14.2731349327133, 7.105427357601e-15, 4; !- X,Y,Z Vertex 4 {m}

OS:Surface,
  {ba951095-77d5-4ca5-bb39-0a78fd8d53b3}, !- Handle
  Surface 11,                             !- Name
  Wall,                                   !- Surface Type
  ,                                       !- Construction Name
  {41939841-5024-4779-8948-6f61a1f4286b}, !- Space Name
  Surface,                                !- Outside Boundary Condition
  {3b8274b5-c03e-43ac-bbf4-2ec8907b74e9}, !- Outside Boundary Condition Object
  NoSun,                                  !- Sun Exposure
  NoWind,                                 !- Wind Exposure
  ,                                       !- View Factor to Ground
  ,                                       !- Number of Vertices
  -3, 3.00000000000001, 4,                !- X,Y,Z Vertex 1 {m}
  -3, 3.00000000000001, 0,                !- X,Y,Z Vertex 2 {m}
  0, 7.105427357601e-15, 0,               !- X,Y,Z Vertex 3 {m}
  0, 7.105427357601e-15, 4;               !- X,Y,Z Vertex 4 {m}

OS:Surface,
  {2baeb67b-cdbd-4918-9894-5e7a5a98f118}, !- Handle
  Surface 12,                             !- Name
  RoofCeiling,                            !- Surface Type
  ,                                       !- Construction Name
  {41939841-5024-4779-8948-6f61a1f4286b}, !- Space Name
  Outdoors,                               !- Outside Boundary Condition
  ,                                       !- Outside Boundary Condition Object
  SunExposed,                             !- Sun Exposure
  WindExposed,                            !- Wind Exposure
  ,                                       !- View Factor to Ground
  ,                                       !- Number of Vertices
  0, 7.105427357601e-15, 4,               !- X,Y,Z Vertex 1 {m}
  14.2731349327133, 7.105427357601e-15, 4, !- X,Y,Z Vertex 2 {m}
  17.2731349327133, 3.00000000000001, 4,  !- X,Y,Z Vertex 3 {m}
  -3, 3.00000000000001, 4;                !- X,Y,Z Vertex 4 {m}

OS:Space,
  {0c970ed4-7ee4-4813-8f7f-845820334587}, !- Handle
  Story 1 East Perimeter Space,           !- Name
  ,                                       !- Space Type Name
  ,                                       !- Default Construction Set Name
  ,                                       !- Default Schedule Set Name
  -0,                                     !- Direction of Relative North {deg}
  17.2731349327133,                       !- X Origin {m}
  3,                                      !- Y Origin {m}
  0,                                      !- Z Origin {m}
  {3c227ac8-54ac-41de-a195-b4ed82d1a864}, !- Building Story Name
  {f2e08275-d19c-43fa-b824-80d0c45db3b7}; !- Thermal Zone Name

OS:Surface,
  {c0b2b489-95e9-47ad-a4aa-97cdf08d2ae5}, !- Handle
  Surface 13,                             !- Name
  Floor,                                  !- Surface Type
  ,                                       !- Construction Name
  {0c970ed4-7ee4-4813-8f7f-845820334587}, !- Space Name
  Ground,                                 !- Outside Boundary Condition
  ,                                       !- Outside Boundary Condition Object
  NoSun,                                  !- Sun Exposure
  NoWind,                                 !- Wind Exposure
  ,                                       !- View Factor to Ground
  ,                                       !- Number of Vertices
  3.00000000000001, 17.2731349327133, 0,  !- X,Y,Z Vertex 1 {m}
  3.00000000000001, -3, 0,                !- X,Y,Z Vertex 2 {m}
  7.105427357601e-15, 0, 0,               !- X,Y,Z Vertex 3 {m}
  7.105427357601e-15, 14.2731349327133, 0; !- X,Y,Z Vertex 4 {m}

OS:Surface,
  {e1115dae-2039-4443-8770-6c74df3e6884}, !- Handle
  Surface 14,                             !- Name
  Wall,                                   !- Surface Type
  ,                                       !- Construction Name
  {0c970ed4-7ee4-4813-8f7f-845820334587}, !- Space Name
  Outdoors,                               !- Outside Boundary Condition
  ,                                       !- Outside Boundary Condition Object
  SunExposed,                             !- Sun Exposure
  WindExposed,                            !- Wind Exposure
  ,                                       !- View Factor to Ground
  ,                                       !- Number of Vertices
  3.00000000000001, -3, 4,                !- X,Y,Z Vertex 1 {m}
  3.00000000000001, -3, 0,                !- X,Y,Z Vertex 2 {m}
  3.00000000000001, 17.2731349327133, 0,  !- X,Y,Z Vertex 3 {m}
  3.00000000000001, 17.2731349327133, 4;  !- X,Y,Z Vertex 4 {m}

OS:Surface,
  {b2fc2a83-0769-4bf2-90f2-aa1e80922ca9}, !- Handle
  Surface 15,                             !- Name
  Wall,                                   !- Surface Type
  ,                                       !- Construction Name
  {0c970ed4-7ee4-4813-8f7f-845820334587}, !- Space Name
  Surface,                                !- Outside Boundary Condition
  {f596d38a-a108-4b55-ae93-1a1b78671a0e}, !- Outside Boundary Condition Object
  NoSun,                                  !- Sun Exposure
  NoWind,                                 !- Wind Exposure
  ,                                       !- View Factor to Ground
  ,                                       !- Number of Vertices
  7.105427357601e-15, 0, 4,               !- X,Y,Z Vertex 1 {m}
  7.105427357601e-15, 0, 0,               !- X,Y,Z Vertex 2 {m}
  3.00000000000001, -3, 0,                !- X,Y,Z Vertex 3 {m}
  3.00000000000001, -3, 4;                !- X,Y,Z Vertex 4 {m}

OS:Surface,
  {913b0b23-0d4a-4b6a-8736-d77fe5b523d9}, !- Handle
  Surface 16,                             !- Name
  Wall,                                   !- Surface Type
  ,                                       !- Construction Name
  {0c970ed4-7ee4-4813-8f7f-845820334587}, !- Space Name
  Surface,                                !- Outside Boundary Condition
  {db1b956a-796c-47ad-9c24-1953379519c7}, !- Outside Boundary Condition Object
  NoSun,                                  !- Sun Exposure
  NoWind,                                 !- Wind Exposure
  ,                                       !- View Factor to Ground
  ,                                       !- Number of Vertices
  7.105427357601e-15, 14.2731349327133, 4, !- X,Y,Z Vertex 1 {m}
  7.105427357601e-15, 14.2731349327133, 0, !- X,Y,Z Vertex 2 {m}
  7.105427357601e-15, 0, 0,               !- X,Y,Z Vertex 3 {m}
  7.105427357601e-15, 0, 4;               !- X,Y,Z Vertex 4 {m}

OS:Surface,
  {f3fa9a8a-c46d-47f0-806f-8bdf29818a97}, !- Handle
  Surface 17,                             !- Name
  Wall,                                   !- Surface Type
  ,                                       !- Construction Name
  {0c970ed4-7ee4-4813-8f7f-845820334587}, !- Space Name
  Surface,                                !- Outside Boundary Condition
  {28088f21-124b-4626-9e60-bd6061941a8f}, !- Outside Boundary Condition Object
  NoSun,                                  !- Sun Exposure
  NoWind,                                 !- Wind Exposure
  ,                                       !- View Factor to Ground
  ,                                       !- Number of Vertices
  3.00000000000001, 17.2731349327133, 4,  !- X,Y,Z Vertex 1 {m}
  3.00000000000001, 17.2731349327133, 0,  !- X,Y,Z Vertex 2 {m}
  7.105427357601e-15, 14.2731349327133, 0, !- X,Y,Z Vertex 3 {m}
  7.105427357601e-15, 14.2731349327133, 4; !- X,Y,Z Vertex 4 {m}

OS:Surface,
  {66b1423f-0ddc-4eaf-b047-31a2a3cf42fb}, !- Handle
  Surface 18,                             !- Name
  RoofCeiling,                            !- Surface Type
  ,                                       !- Construction Name
  {0c970ed4-7ee4-4813-8f7f-845820334587}, !- Space Name
  Outdoors,                               !- Outside Boundary Condition
  ,                                       !- Outside Boundary Condition Object
  SunExposed,                             !- Sun Exposure
  WindExposed,                            !- Wind Exposure
  ,                                       !- View Factor to Ground
  ,                                       !- Number of Vertices
  7.105427357601e-15, 14.2731349327133, 4, !- X,Y,Z Vertex 1 {m}
  7.105427357601e-15, 0, 4,               !- X,Y,Z Vertex 2 {m}
  3.00000000000001, -3, 4,                !- X,Y,Z Vertex 3 {m}
  3.00000000000001, 17.2731349327133, 4;  !- X,Y,Z Vertex 4 {m}

OS:Space,
  {8ad9eb88-9777-4b8b-be0d-e132837582ca}, !- Handle
  Story 1 South Perimeter Space,          !- Name
  ,                                       !- Space Type Name
  ,                                       !- Default Construction Set Name
  ,                                       !- Default Schedule Set Name
  -0,                                     !- Direction of Relative North {deg}
  0,                                      !- X Origin {m}
  0,                                      !- Y Origin {m}
  0,                                      !- Z Origin {m}
  {3c227ac8-54ac-41de-a195-b4ed82d1a864}, !- Building Story Name
  {711aa0c2-1ab0-4098-b8cd-62bf0a16b878}; !- Thermal Zone Name

OS:Surface,
  {41cbd4cf-2792-41ad-a6cc-83ea508b9ed9}, !- Handle
  Surface 19,                             !- Name
  Floor,                                  !- Surface Type
  ,                                       !- Construction Name
  {8ad9eb88-9777-4b8b-be0d-e132837582ca}, !- Space Name
  Ground,                                 !- Outside Boundary Condition
  ,                                       !- Outside Boundary Condition Object
  NoSun,                                  !- Sun Exposure
  NoWind,                                 !- Wind Exposure
  ,                                       !- View Factor to Ground
  ,                                       !- Number of Vertices
  20.2731349327133, 0, 0,                 !- X,Y,Z Vertex 1 {m}
  0, 0, 0,                                !- X,Y,Z Vertex 2 {m}
  3, 3, 0,                                !- X,Y,Z Vertex 3 {m}
  17.2731349327133, 3, 0;                 !- X,Y,Z Vertex 4 {m}

OS:Surface,
  {32e7d23f-02cb-451c-b56c-6a36835c4dc9}, !- Handle
  Surface 20,                             !- Name
  Wall,                                   !- Surface Type
  ,                                       !- Construction Name
  {8ad9eb88-9777-4b8b-be0d-e132837582ca}, !- Space Name
  Outdoors,                               !- Outside Boundary Condition
  ,                                       !- Outside Boundary Condition Object
  SunExposed,                             !- Sun Exposure
  WindExposed,                            !- Wind Exposure
  ,                                       !- View Factor to Ground
  ,                                       !- Number of Vertices
  0, 0, 4,                                !- X,Y,Z Vertex 1 {m}
  0, 0, 0,                                !- X,Y,Z Vertex 2 {m}
  20.2731349327133, 0, 0,                 !- X,Y,Z Vertex 3 {m}
  20.2731349327133, 0, 4;                 !- X,Y,Z Vertex 4 {m}

OS:Surface,
  {d7dc7491-c988-4da9-9ee4-47cfe2a4cb8c}, !- Handle
  Surface 21,                             !- Name
  Wall,                                   !- Surface Type
  ,                                       !- Construction Name
  {8ad9eb88-9777-4b8b-be0d-e132837582ca}, !- Space Name
  Surface,                                !- Outside Boundary Condition
  {0ba1bd46-46c1-4cda-a0cc-a93111681bff}, !- Outside Boundary Condition Object
  NoSun,                                  !- Sun Exposure
  NoWind,                                 !- Wind Exposure
  ,                                       !- View Factor to Ground
  ,                                       !- Number of Vertices
  3, 3, 4,                                !- X,Y,Z Vertex 1 {m}
  3, 3, 0,                                !- X,Y,Z Vertex 2 {m}
  0, 0, 0,                                !- X,Y,Z Vertex 3 {m}
  0, 0, 4;                                !- X,Y,Z Vertex 4 {m}

OS:Surface,
  {186836f4-1770-4a4e-9be7-059fdcc2c3e1}, !- Handle
  Surface 22,                             !- Name
  Wall,                                   !- Surface Type
  ,                                       !- Construction Name
  {8ad9eb88-9777-4b8b-be0d-e132837582ca}, !- Space Name
  Surface,                                !- Outside Boundary Condition
  {68d39988-9a0a-4418-a2a4-ca658fdc3976}, !- Outside Boundary Condition Object
  NoSun,                                  !- Sun Exposure
  NoWind,                                 !- Wind Exposure
  ,                                       !- View Factor to Ground
  ,                                       !- Number of Vertices
  17.2731349327133, 3, 4,                 !- X,Y,Z Vertex 1 {m}
  17.2731349327133, 3, 0,                 !- X,Y,Z Vertex 2 {m}
  3, 3, 0,                                !- X,Y,Z Vertex 3 {m}
  3, 3, 4;                                !- X,Y,Z Vertex 4 {m}

OS:Surface,
  {f596d38a-a108-4b55-ae93-1a1b78671a0e}, !- Handle
  Surface 23,                             !- Name
  Wall,                                   !- Surface Type
  ,                                       !- Construction Name
  {8ad9eb88-9777-4b8b-be0d-e132837582ca}, !- Space Name
  Surface,                                !- Outside Boundary Condition
  {b2fc2a83-0769-4bf2-90f2-aa1e80922ca9}, !- Outside Boundary Condition Object
  NoSun,                                  !- Sun Exposure
  NoWind,                                 !- Wind Exposure
  ,                                       !- View Factor to Ground
  ,                                       !- Number of Vertices
  20.2731349327133, 0, 4,                 !- X,Y,Z Vertex 1 {m}
  20.2731349327133, 0, 0,                 !- X,Y,Z Vertex 2 {m}
  17.2731349327133, 3, 0,                 !- X,Y,Z Vertex 3 {m}
  17.2731349327133, 3, 4;                 !- X,Y,Z Vertex 4 {m}

OS:Surface,
  {0f45baf3-b418-4898-820b-eb4949adda3c}, !- Handle
  Surface 24,                             !- Name
  RoofCeiling,                            !- Surface Type
  ,                                       !- Construction Name
  {8ad9eb88-9777-4b8b-be0d-e132837582ca}, !- Space Name
  Outdoors,                               !- Outside Boundary Condition
  ,                                       !- Outside Boundary Condition Object
  SunExposed,                             !- Sun Exposure
  WindExposed,                            !- Wind Exposure
  ,                                       !- View Factor to Ground
  ,                                       !- Number of Vertices
  17.2731349327133, 3, 4,                 !- X,Y,Z Vertex 1 {m}
  3, 3, 4,                                !- X,Y,Z Vertex 2 {m}
  0, 0, 4,                                !- X,Y,Z Vertex 3 {m}
  20.2731349327133, 0, 4;                 !- X,Y,Z Vertex 4 {m}

OS:Space,
  {97ccfb63-bb98-4f63-aebe-c2c8927a8d54}, !- Handle
  Story 1 Core Space,                     !- Name
  ,                                       !- Space Type Name
  ,                                       !- Default Construction Set Name
  ,                                       !- Default Schedule Set Name
  -0,                                     !- Direction of Relative North {deg}
  3,                                      !- X Origin {m}
  3,                                      !- Y Origin {m}
  0,                                      !- Z Origin {m}
  {3c227ac8-54ac-41de-a195-b4ed82d1a864}, !- Building Story Name
  {63fee610-4c3f-4375-8ad9-2e5021eea238}; !- Thermal Zone Name

OS:Surface,
  {8c749570-3b45-46ff-b14c-267119c752e4}, !- Handle
  Surface 25,                             !- Name
  Floor,                                  !- Surface Type
  ,                                       !- Construction Name
  {97ccfb63-bb98-4f63-aebe-c2c8927a8d54}, !- Space Name
  Ground,                                 !- Outside Boundary Condition
  ,                                       !- Outside Boundary Condition Object
  NoSun,                                  !- Sun Exposure
  NoWind,                                 !- Wind Exposure
  ,                                       !- View Factor to Ground
  ,                                       !- Number of Vertices
  0, 0, 0,                                !- X,Y,Z Vertex 1 {m}
  0, 14.2731349327133, 0,                 !- X,Y,Z Vertex 2 {m}
  14.2731349327133, 14.2731349327133, 0,  !- X,Y,Z Vertex 3 {m}
  14.2731349327133, 0, 0;                 !- X,Y,Z Vertex 4 {m}

OS:Surface,
  {b312f89f-0ac4-41cb-a4e9-5363212084ef}, !- Handle
  Surface 26,                             !- Name
  Wall,                                   !- Surface Type
  ,                                       !- Construction Name
  {97ccfb63-bb98-4f63-aebe-c2c8927a8d54}, !- Space Name
  Surface,                                !- Outside Boundary Condition
  {01558d17-f90d-453a-91c4-f584bd0e6fcf}, !- Outside Boundary Condition Object
  NoSun,                                  !- Sun Exposure
  NoWind,                                 !- Wind Exposure
  ,                                       !- View Factor to Ground
  ,                                       !- Number of Vertices
  0, 14.2731349327133, 4,                 !- X,Y,Z Vertex 1 {m}
  0, 14.2731349327133, 0,                 !- X,Y,Z Vertex 2 {m}
  0, 0, 0,                                !- X,Y,Z Vertex 3 {m}
  0, 0, 4;                                !- X,Y,Z Vertex 4 {m}

OS:Surface,
  {d2662a05-befb-4d0e-a53e-e70075fc02b7}, !- Handle
  Surface 27,                             !- Name
  Wall,                                   !- Surface Type
  ,                                       !- Construction Name
  {97ccfb63-bb98-4f63-aebe-c2c8927a8d54}, !- Space Name
  Surface,                                !- Outside Boundary Condition
  {98769173-5128-4d4a-9009-5dce5504213e}, !- Outside Boundary Condition Object
  NoSun,                                  !- Sun Exposure
  NoWind,                                 !- Wind Exposure
  ,                                       !- View Factor to Ground
  ,                                       !- Number of Vertices
  14.2731349327133, 14.2731349327133, 4,  !- X,Y,Z Vertex 1 {m}
  14.2731349327133, 14.2731349327133, 0,  !- X,Y,Z Vertex 2 {m}
  0, 14.2731349327133, 0,                 !- X,Y,Z Vertex 3 {m}
  0, 14.2731349327133, 4;                 !- X,Y,Z Vertex 4 {m}

OS:Surface,
  {db1b956a-796c-47ad-9c24-1953379519c7}, !- Handle
  Surface 28,                             !- Name
  Wall,                                   !- Surface Type
  ,                                       !- Construction Name
  {97ccfb63-bb98-4f63-aebe-c2c8927a8d54}, !- Space Name