
OS:Version,
  {38cb23bf-b097-4a9a-8b3b-3deb5307d8ae}, !- Handle
  0.10.0;                                 !- Version Identifier

OS:BuildingStory,
  {2bfa119f-c29d-460d-87fd-5c4dceec1619}, !- Handle
  Story 1,                                !- Name
  0,                                      !- Nominal Z Coordinate {m}
  4,                                      !- Nominal Floor to Floor Height {m}
  ,                                       !- Default Construction Set Name
  ,                                       !- Default Schedule Set Name
  ;                                       !- Group Rendering Name

OS:Space,
  {61288f88-607d-4577-8046-51353afbb2de}, !- Handle
  Story 1 West Perimeter Space,           !- Name
  ,                                       !- Space Type Name
  ,                                       !- Default Construction Set Name
  ,                                       !- Default Schedule Set Name
  -0,                                     !- Direction of Relative North {deg}
  0,                                      !- X Origin {m}
  0,                                      !- Y Origin {m}
  0,                                      !- Z Origin {m}
  {2bfa119f-c29d-460d-87fd-5c4dceec1619}, !- Building Story Name
  {2fe6d852-0f71-4510-9f3a-82ccebf59a38}; !- Thermal Zone Name

OS:Surface,
  {b5db8c0f-565f-4bf1-9ad2-a93b4fb0f597}, !- Handle
  Surface 1,                              !- Name
  Floor,                                  !- Surface Type
  ,                                       !- Construction Name
  {61288f88-607d-4577-8046-51353afbb2de}, !- Space Name
  Ground,                                 !- Outside Boundary Condition
  ,                                       !- Outside Boundary Condition Object
  NoSun,                                  !- Sun Exposure
  NoWind,                                 !- Wind Exposure
  ,                                       !- View Factor to Ground
  ,                                       !- Number of Vertices
  0, 0, 0,                                !- X,Y,Z Vertex 1 {m}
  0, 21.8632111090754, 0,                 !- X,Y,Z Vertex 2 {m}
  3, 18.8632111090754, 0,                 !- X,Y,Z Vertex 3 {m}
  3, 3, 0;                                !- X,Y,Z Vertex 4 {m}

OS:Surface,
  {0cd3ca6c-0891-49a9-8c50-688f07ee045a}, !- Handle
  Surface 2,                              !- Name
  Wall,                                   !- Surface Type
  ,                                       !- Construction Name
  {61288f88-607d-4577-8046-51353afbb2de}, !- Space Name
  Outdoors,                               !- Outside Boundary Condition
  ,                                       !- Outside Boundary Condition Object
  SunExposed,                             !- Sun Exposure
  WindExposed,                            !- Wind Exposure
  ,                                       !- View Factor to Ground
  ,                                       !- Number of Vertices
  0, 21.8632111090754, 4,                 !- X,Y,Z Vertex 1 {m}
  0, 21.8632111090754, 0,                 !- X,Y,Z Vertex 2 {m}
  0, 0, 0,                                !- X,Y,Z Vertex 3 {m}
  0, 0, 4;                                !- X,Y,Z Vertex 4 {m}

OS:Surface,
  {be47d5c5-17d6-42d4-ba0d-ec72cffe090a}, !- Handle
  Surface 3,                              !- Name
  Wall,                                   !- Surface Type
  ,                                       !- Construction Name
  {61288f88-607d-4577-8046-51353afbb2de}, !- Space Name
  Surface,                                !- Outside Boundary Condition
  {e51441bf-5f36-4c10-867e-b99274e6645e}, !- Outside Boundary Condition Object
  NoSun,                                  !- Sun Exposure
  NoWind,                                 !- Wind Exposure
  ,                                       !- View Factor to Ground
  ,                                       !- Number of Vertices
  3, 18.8632111090754, 4,                 !- X,Y,Z Vertex 1 {m}
  3, 18.8632111090754, 0,                 !- X,Y,Z Vertex 2 {m}
  0, 21.8632111090754, 0,                 !- X,Y,Z Vertex 3 {m}
  0, 21.8632111090754, 4;                 !- X,Y,Z Vertex 4 {m}

OS:Surface,
  {305c1823-e59c-4a59-91a2-50309a742f46}, !- Handle
  Surface 4,                              !- Name
  Wall,                                   !- Surface Type
  ,                                       !- Construction Name
  {61288f88-607d-4577-8046-51353afbb2de}, !- Space Name
  Surface,                                !- Outside Boundary Condition
  {84d8e136-2af9-450e-8a14-a0a7530ab7ec}, !- Outside Boundary Condition Object
  NoSun,                                  !- Sun Exposure
  NoWind,                                 !- Wind Exposure
  ,                                       !- View Factor to Ground
  ,                                       !- Number of Vertices
  3, 3, 4,                                !- X,Y,Z Vertex 1 {m}
  3, 3, 0,                                !- X,Y,Z Vertex 2 {m}
  3, 18.8632111090754, 0,                 !- X,Y,Z Vertex 3 {m}
  3, 18.8632111090754, 4;                 !- X,Y,Z Vertex 4 {m}

OS:Surface,
  {33b16dac-a172-450a-bfde-b9c9169dbd5f}, !- Handle
  Surface 5,                              !- Name
  Wall,                                   !- Surface Type
  ,                                       !- Construction Name
  {61288f88-607d-4577-8046-51353afbb2de}, !- Space Name
  Surface,                                !- Outside Boundary Condition
  {64056c56-7d97-4e5e-8829-dd7fe045e328}, !- Outside Boundary Condition Object
  NoSun,                                  !- Sun Exposure
  NoWind,                                 !- Wind Exposure
  ,                                       !- View Factor to Ground
  ,                                       !- Number of Vertices
  0, 0, 4,                                !- X,Y,Z Vertex 1 {m}
  0, 0, 0,                                !- X,Y,Z Vertex 2 {m}
  3, 3, 0,                                !- X,Y,Z Vertex 3 {m}
  3, 3, 4;                                !- X,Y,Z Vertex 4 {m}

OS:Surface,
  {7561a2f6-3e92-48ce-ba6c-3185923764cf}, !- Handle
  Surface 6,                              !- Name
  RoofCeiling,                            !- Surface Type
  ,                                       !- Construction Name
  {61288f88-607d-4577-8046-51353afbb2de}, !- Space Name
  Outdoors,                               !- Outside Boundary Condition
  ,                                       !- Outside Boundary Condition Object
  SunExposed,                             !- Sun Exposure
  WindExposed,                            !- Wind Exposure
  ,                                       !- View Factor to Ground
  ,                                       !- Number of Vertices
  3, 3, 4,                                !- X,Y,Z Vertex 1 {m}
  3, 18.8632111090754, 4,                 !- X,Y,Z Vertex 2 {m}
  0, 21.8632111090754, 4,                 !- X,Y,Z Vertex 3 {m}
  0, 0, 4;                                !- X,Y,Z Vertex 4 {m}

OS:Space,
  {9b4db894-5f2d-41f7-b347-6f146961532b}, !- Handle
  Story 1 North Perimeter Space,          !- Name
  ,                                       !- Space Type Name
  ,                                       !- Default Construction Set Name
  ,                                       !- Default Schedule Set Name
  -0,                                     !- Direction of Relative North {deg}
  3,                                      !- X Origin {m}
  18.8632111090754,                       !- Y Origin {m}
  0,                                      !- Z Origin {m}
  {2bfa119f-c29d-460d-87fd-5c4dceec1619}, !- Building Story Name
  {161d023c-97ba-496d-8b17-72d841847de4}; !- Thermal Zone Name

OS:Surface,
  {d2e80174-5868-451e-a203-5497aa7b96e9}, !- Handle
  Surface 7,                              !- Name
  Floor,                                  !- Surface Type
  ,                                       !- Construction Name
  {9b4db894-5f2d-41f7-b347-6f146961532b}, !- Space Name
  Ground,                                 !- Outside Boundary Condition
  ,                                       !- Outside Boundary Condition Object
  NoSun,                                  !- Sun Exposure
  NoWind,                                 !- Wind Exposure
  ,                                       !- View Factor to Ground
  ,                                       !- Number of Vertices
  -3, 2.99999999999995, 0,                !- X,Y,Z Vertex 1 {m}
  18.8632111090754, 2.99999999999995, 0,  !- X,Y,Z Vertex 2 {m}
  15.8632111090754, -4.61852778244065e-14, 0, !- X,Y,Z Vertex 3 {m}
  0, -4.61852778244065e-14, 0;            !- X,Y,Z Vertex 4 {m}

OS:Surface,
  {bad614bc-49c9-4d14-834d-6ddf4bd6d78c}, !- Handle
  Surface 8,                              !- Name
  Wall,                                   !- Surface Type
  ,                                       !- Construction Name
  {9b4db894-5f2d-41f7-b347-6f146961532b}, !- Space Name
  Outdoors,                               !- Outside Boundary Condition
  ,                                       !- Outside Boundary Condition Object
  SunExposed,                             !- Sun Exposure
  WindExposed,                            !- Wind Exposure
  ,                                       !- View Factor to Ground
  ,                                       !- Number of Vertices
  18.8632111090754, 2.99999999999995, 4,  !- X,Y,Z Vertex 1 {m}
  18.8632111090754, 2.99999999999995, 0,  !- X,Y,Z Vertex 2 {m}
  -3, 2.99999999999995, 0,                !- X,Y,Z Vertex 3 {m}
  -3, 2.99999999999995, 4;                !- X,Y,Z Vertex 4 {m}

OS:Surface,
  {71f2fc04-c198-436b-9484-27dc6450c929}, !- Handle
  Surface 9,                              !- Name
  Wall,                                   !- Surface Type
  ,                                       !- Construction Name
  {9b4db894-5f2d-41f7-b347-6f146961532b}, !- Space Name
  Surface,                                !- Outside Boundary Condition
  {9574a8b4-c4a3-4b54-a121-7fa2f8e1b2d4}, !- Outside Boundary Condition Object
  NoSun,                                  !- Sun Exposure
  NoWind,                                 !- Wind Exposure
  ,                                       !- View Factor to Ground
  ,                                       !- Number of Vertices
  15.8632111090754, -4.61852778244065e-14, 4, !- X,Y,Z Vertex 1 {m}
  15.8632111090754, -4.61852778244065e-14, 0, !- X,Y,Z Vertex 2 {m}
  18.8632111090754, 2.99999999999995, 0,  !- X,Y,Z Vertex 3 {m}
  18.8632111090754, 2.99999999999995, 4;  !- X,Y,Z Vertex 4 {m}

OS:Surface,
  {351a297a-2f0d-47cb-8e48-1a0feb4a5e1c}, !- Handle
  Surface 10,                             !- Name
  Wall,                                   !- Surface Type
  ,                                       !- Construction Name
  {9b4db894-5f2d-41f7-b347-6f146961532b}, !- Space Name
  Surface,                                !- Outside Boundary Condition
  {474d8082-e7b6-4b69-891b-f08b73d78da6}, !- Outside Boundary Condition Object
  NoSun,                                  !- Sun Exposure
  NoWind,                                 !- Wind Exposure
  ,                                       !- View Factor to Ground
  ,                                       !- Number of Vertices
  0, -4.61852778244065e-14, 4,            !- X,Y,Z Vertex 1 {m}
  0, -4.61852778244065e-14, 0,            !- X,Y,Z Vertex 2 {m}
  15.8632111090754, -4.61852778244065e-14, 0, !- X,Y,Z Vertex 3 {m}
  15.8632111090754, -4.61852778244065e-14, 4; !- X,Y,Z Vertex 4 {m}

OS:Surface,
  {e51441bf-5f36-4c10-867e-b99274e6645e}, !- Handle
  Surface 11,                             !- Name
  Wall,                                   !- Surface Type
  ,                                       !- Construction Name
  {9b4db894-5f2d-41f7-b347-6f146961532b}, !- Space Name
  Surface,                                !- Outside Boundary Condition
  {be47d5c5-17d6-42d4-ba0d-ec72cffe090a}, !- Outside Boundary Condition Object
  NoSun,                                  !- Sun Exposure
  NoWind,                                 !- Wind Exposure
  ,                                       !- View Factor to Ground
  ,                                       !- Number of Vertices
  -3, 2.99999999999995, 4,                !- X,Y,Z Vertex 1 {m}
  -3, 2.99999999999995, 0,                !- X,Y,Z Vertex 2 {m}
  0, -4.61852778244065e-14, 0,            !- X,Y,Z Vertex 3 {m}
  0, -4.61852778244065e-14, 4;            !- X,Y,Z Vertex 4 {m}

OS:Surface,
  {9d5f3292-a038-4cb1-bdf0-2045d4ecccdf}, !- Handle
  Surface 12,                             !- Name
  RoofCeiling,                            !- Surface Type
  ,                                       !- Construction Name
  {9b4db894-5f2d-41f7-b347-6f146961532b}, !- Space Name
  Outdoors,                               !- Outside Boundary Condition
  ,                                       !- Outside Boundary Condition Object
  SunExposed,                             !- Sun Exposure
  WindExposed,                            !- Wind Exposure
  ,                                       !- View Factor to Ground
  ,                                       !- Number of Vertices
  0, -4.61852778244065e-14, 4,            !- X,Y,Z Vertex 1 {m}
  15.8632111090754, -4.61852778244065e-14, 4, !- X,Y,Z Vertex 2 {m}
  18.8632111090754, 2.99999999999995, 4,  !- X,Y,Z Vertex 3 {m}
  -3, 2.99999999999995, 4;                !- X,Y,Z Vertex 4 {m}

OS:Space,
  {53ff5ba8-fec1-4dbc-9ff4-836680ae8dbe}, !- Handle
  Story 1 East Perimeter Space,           !- Name
  ,                                       !- Space Type Name
  ,                                       !- Default Construction Set Name
  ,                                       !- Default Schedule Set Name
  -0,                                     !- Direction of Relative North {deg}
  18.8632111090754,                       !- X Origin {m}
  3,                                      !- Y Origin {m}
  0,                                      !- Z Origin {m}
  {2bfa119f-c29d-460d-87fd-5c4dceec1619}, !- Building Story Name
  {3366f762-22fc-4aa9-9dac-2c68e491ec4b}; !- Thermal Zone Name

OS:Surface,
  {7bf09d26-4b67-4f6f-91c2-f17d12540ba4}, !- Handle
  Surface 13,                             !- Name
  Floor,                                  !- Surface Type
  ,                                       !- Construction Name
  {53ff5ba8-fec1-4dbc-9ff4-836680ae8dbe}, !- Space Name
  Ground,                                 !- Outside Boundary Condition
  ,                                       !- Outside Boundary Condition Object
  NoSun,                                  !- Sun Exposure
  NoWind,                                 !- Wind Exposure
  ,                                       !- View Factor to Ground
  ,                                       !- Number of Vertices
  2.99999999999995, 18.8632111090754, 0,  !- X,Y,Z Vertex 1 {m}
  2.99999999999995, -3, 0,                !- X,Y,Z Vertex 2 {m}
  -4.61852778244065e-14, 0, 0,            !- X,Y,Z Vertex 3 {m}
  -4.61852778244065e-14, 15.8632111090754, 0; !- X,Y,Z Vertex 4 {m}

OS:Surface,
  {a93591e3-a754-48d6-b788-2569018df7de}, !- Handle
  Surface 14,                             !- Name
  Wall,                                   !- Surface Type
  ,                                       !- Construction Name
  {53ff5ba8-fec1-4dbc-9ff4-836680ae8dbe}, !- Space Name
  Outdoors,                               !- Outside Boundary Condition
  ,                                       !- Outside Boundary Condition Object
  SunExposed,                             !- Sun Exposure
  WindExposed,                            !- Wind Exposure
  ,                                       !- View Factor to Ground
  ,                                       !- Number of Vertices
  2.99999999999995, -3, 4,                !- X,Y,Z Vertex 1 {m}
  2.99999999999995, -3, 0,                !- X,Y,Z Vertex 2 {m}
  2.99999999999995, 18.8632111090754, 0,  !- X,Y,Z Vertex 3 {m}
  2.99999999999995, 18.8632111090754, 4;  !- X,Y,Z Vertex 4 {m}

OS:Surface,
  {0f97f70a-92e4-45e1-bcd5-0535037179a0}, !- Handle
  Surface 15,                             !- Name
  Wall,                                   !- Surface Type
  ,                                       !- Construction Name
  {53ff5ba8-fec1-4dbc-9ff4-836680ae8dbe}, !- Space Name
  Surface,                                !- Outside Boundary Condition
  {b0118728-ec12-42d1-935b-d9dc5abe864c}, !- Outside Boundary Condition Object
  NoSun,                                  !- Sun Exposure
  NoWind,                                 !- Wind Exposure
  ,                                       !- View Factor to Ground
  ,                                       !- Number of Vertices
  -4.61852778244065e-14, 0, 4,            !- X,Y,Z Vertex 1 {m}
  -4.61852778244065e-14, 0, 0,            !- X,Y,Z Vertex 2 {m}
  2.99999999999995, -3, 0,                !- X,Y,Z Vertex 3 {m}
  2.99999999999995, -3, 4;                !- X,Y,Z Vertex 4 {m}

OS:Surface,
  {4ca3a433-8dd5-4fa2-b8a6-3a8d758d180a}, !- Handle
  Surface 16,                             !- Name
  Wall,                                   !- Surface Type
  ,                                       !- Construction Name
  {53ff5ba8-fec1-4dbc-9ff4-836680ae8dbe}, !- Space Name
  Surface,                                !- Outside Boundary Condition
  {8a25d5be-d6f5-40d2-b5e9-6672910cea1a}, !- Outside Boundary Condition Object
  NoSun,                                  !- Sun Exposure
  NoWind,                                 !- Wind Exposure
  ,                                       !- View Factor to Ground
  ,                                       !- Number of Vertices
  -4.61852778244065e-14, 15.8632111090754, 4, !- X,Y,Z Vertex 1 {m}
  -4.61852778244065e-14, 15.8632111090754, 0, !- X,Y,Z Vertex 2 {m}
  -4.61852778244065e-14, 0, 0,            !- X,Y,Z Vertex 3 {m}
  -4.61852778244065e-14, 0, 4;            !- X,Y,Z Vertex 4 {m}

OS:Surface,
  {9574a8b4-c4a3-4b54-a121-7fa2f8e1b2d4}, !- Handle
  Surface 17,                             !- Name
  Wall,                                   !- Surface Type
  ,                                       !- Construction Name
  {53ff5ba8-fec1-4dbc-9ff4-836680ae8dbe}, !- Space Name
  Surface,                                !- Outside Boundary Condition
  {71f2fc04-c198-436b-9484-27dc6450c929}, !- Outside Boundary Condition Object
  NoSun,                                  !- Sun Exposure
  NoWind,                                 !- Wind Exposure
  ,                                       !- View Factor to Ground
  ,                                       !- Number of Vertices
  2.99999999999995, 18.8632111090754, 4,  !- X,Y,Z Vertex 1 {m}
  2.99999999999995, 18.8632111090754, 0,  !- X,Y,Z Vertex 2 {m}
  -4.61852778244065e-14, 15.8632111090754, 0, !- X,Y,Z Vertex 3 {m}
  -4.61852778244065e-14, 15.8632111090754, 4; !- X,Y,Z Vertex 4 {m}

OS:Surface,
  {e2d1174f-c849-4196-acbe-f6bcd3b6260e}, !- Handle
  Surface 18,                             !- Name
  RoofCeiling,                            !- Surface Type
  ,                                       !- Construction Name
  {53ff5ba8-fec1-4dbc-9ff4-836680ae8dbe}, !- Space Name
  Outdoors,                               !- Outside Boundary Condition
  ,                                       !- Outside Boundary Condition Object
  SunExposed,                             !- Sun Exposure
  WindExposed,                            !- Wind Exposure
  ,                                       !- View Factor to Ground
  ,                                       !- Number of Vertices
  -4.61852778244065e-14, 15.8632111090754, 4, !- X,Y,Z Vertex 1 {m}
  -4.61852778244065e-14, 0, 4,            !- X,Y,Z Vertex 2 {m}
  2.99999999999995, -3, 4,                !- X,Y,Z Vertex 3 {m}
  2.99999999999995, 18.8632111090754, 4;  !- X,Y,Z Vertex 4 {m}

OS:Space,
  {e2f54c22-065a-440a-a221-b5f2b35ee11c}, !- Handle
  Story 1 South Perimeter Space,          !- Name
  ,                                       !- Space Type Name
  ,                                       !- Default Construction Set Name
  ,                                       !- Default Schedule Set Name
  -0,                                     !- Direction of Relative North {deg}
  0,                                      !- X Origin {m}
  0,                                      !- Y Origin {m}
  0,                                      !- Z Origin {m}
  {2bfa119f-c29d-460d-87fd-5c4dceec1619}, !- Building Story Name
  {886cd54f-380d-45ee-9e3a-56d86a2ce3ed}; !- Thermal Zone Name

OS:Surface,
  {854d980b-3e57-4e83-977a-2fabe049ba52}, !- Handle
  Surface 19,                             !- Name
  Floor,                                  !- Surface Type
  ,                                       !- Construction Name
  {e2f54c22-065a-440a-a221-b5f2b35ee11c}, !- Space Name
  Ground,                                 !- Outside Boundary Condition
  ,                                       !- Outside Boundary Condition Object
  NoSun,                                  !- Sun Exposure
  NoWind,                                 !- Wind Exposure
  ,                                       !- View Factor to Ground
  ,                                       !- Number of Vertices
  21.8632111090754, 0, 0,                 !- X,Y,Z Vertex 1 {m}
  0, 0, 0,                                !- X,Y,Z Vertex 2 {m}
  3, 3, 0,                                !- X,Y,Z Vertex 3 {m}
  18.8632111090754, 3, 0;                 !- X,Y,Z Vertex 4 {m}

OS:Surface,
  {4db7571b-08c9-40ad-9ba7-e00c9749ec5c}, !- Handle
  Surface 20,                             !- Name
  Wall,                                   !- Surface Type
  ,                                       !- Construction Name
  {e2f54c22-065a-440a-a221-b5f2b35ee11c}, !- Space Name
  Outdoors,                               !- Outside Boundary Condition
  ,                                       !- Outside Boundary Condition Object
  SunExposed,                             !- Sun Exposure
  WindExposed,                            !- Wind Exposure
  ,                                       !- View Factor to Ground
  ,                                       !- Number of Vertices
  0, 0, 4,                                !- X,Y,Z Vertex 1 {m}
  0, 0, 0,                                !- X,Y,Z Vertex 2 {m}
  21.8632111090754, 0, 0,                 !- X,Y,Z Vertex 3 {m}
  21.8632111090754, 0, 4;                 !- X,Y,Z Vertex 4 {m}

OS:Surface,
  {64056c56-7d97-4e5e-8829-dd7fe045e328}, !- Handle
  Surface 21,                             !- Name
  Wall,                                   !- Surface Type
  ,                                       !- Construction Name
  {e2f54c22-065a-440a-a221-b5f2b35ee11c}, !- Space Name
  Surface,                                !- Outside Boundary Condition
  {33b16dac-a172-450a-bfde-b9c9169dbd5f}, !- Outside Boundary Condition Object
  NoSun,                                  !- Sun Exposure
  NoWind,                                 !- Wind Exposure
  ,                                       !- View Factor to Ground
  ,                                       !- Number of Vertices
  3, 3, 4,                                !- X,Y,Z Vertex 1 {m}
  3, 3, 0,                                !- X,Y,Z Vertex 2 {m}
  0, 0, 0,                                !- X,Y,Z Vertex 3 {m}
  0, 0, 4;                                !- X,Y,Z Vertex 4 {m}

OS:Surface,
  {09c43e43-6b65-40ae-a62c-73fc62713994}, !- Handle
  Surface 22,                             !- Name
  Wall,                                   !- Surface Type
  ,                                       !- Construction Name
  {e2f54c22-065a-440a-a221-b5f2b35ee11c}, !- Space Name
  Surface,                                !- Outside Boundary Condition
  {e047bf6c-f46b-4f16-9f5d-10fc1e03ccf3}, !- Outside Boundary Condition Object
  NoSun,                                  !- Sun Exposure
  NoWind,                                 !- Wind Exposure
  ,                                       !- View Factor to Ground
  ,                                       !- Number of Vertices
  18.8632111090754, 3, 4,                 !- X,Y,Z Vertex 1 {m}
  18.8632111090754, 3, 0,                 !- X,Y,Z Vertex 2 {m}
  3, 3, 0,                                !- X,Y,Z Vertex 3 {m}
  3, 3, 4;                                !- X,Y,Z Vertex 4 {m}

OS:Surface,
  {b0118728-ec12-42d1-935b-d9dc5abe864c}, !- Handle
  Surface 23,                             !- Name
  Wall,                                   !- Surface Type
  ,                                       !- Construction Name
  {e2f54c22-065a-440a-a221-b5f2b35ee11c}, !- Space Name
  Surface,                                !- Outside Boundary Condition
  {0f97f70a-92e4-45e1-bcd5-0535037179a0}, !- Outside Boundary Condition Object
  NoSun,                                  !- Sun Exposure
  NoWind,                                 !- Wind Exposure
  ,                                       !- View Factor to Ground
  ,                                       !- Number of Vertices
  21.8632111090754, 0, 4,                 !- X,Y,Z Vertex 1 {m}
  21.8632111090754, 0, 0,                 !- X,Y,Z Vertex 2 {m}
  18.8632111090754, 3, 0,                 !- X,Y,Z Vertex 3 {m}
  18.8632111090754, 3, 4;                 !- X,Y,Z Vertex 4 {m}

OS:Surface,
  {3d09443d-aaaf-4485-8dd1-7ef8e83c43b0}, !- Handle
  Surface 24,                             !- Name
  RoofCeiling,                            !- Surface Type
  ,                                       !- Construction Name
  {e2f54c22-065a-440a-a221-b5f2b35ee11c}, !- Space Name
  Outdoors,                               !- Outside Boundary Condition
  ,                                       !- Outside Boundary Condition Object
  SunExposed,                             !- Sun Exposure
  WindExposed,                            !- Wind Exposure
  ,                                       !- View Factor to Ground
  ,                                       !- Number of Vertices
  18.8632111090754, 3, 4,                 !- X,Y,Z Vertex 1 {m}
  3, 3, 4,                                !- X,Y,Z Vertex 2 {m}
  0, 0, 4,                                !- X,Y,Z Vertex 3 {m}
  21.8632111090754, 0, 4;                 !- X,Y,Z Vertex 4 {m}

OS:Space,
  {20f6482f-1b94-4bc6-ad68-817a57d4e632}, !- Handle
  Story 1 Core Space,                     !- Name
  ,                                       !- Space Type Name
  ,                                       !- Default Construction Set Name
  ,                                       !- Default Schedule Set Name
  -0,                                     !- Direction of Relative North {deg}
  3,                                      !- X Origin {m}
  3,                                      !- Y Origin {m}
  0,                                      !- Z Origin {m}
  {2bfa119f-c29d-460d-87fd-5c4dceec1619}, !- Building Story Name
  {4627529e-a0e8-4ee4-bb99-428cd4fe3716}; !- Thermal Zone Name

OS:Surface,
  {cdf72842-0288-4409-9fc3-93d2a50edc60}, !- Handle
  Surface 25,                             !- Name
  Floor,                                  !- Surface Type
  ,                                       !- Construction Name
  {20f6482f-1b94-4bc6-ad68-817a57d4e632}, !- Space Name
  Ground,                                 !- Outside Boundary Condition
  ,                                       !- Outside Boundary Condition Object
  NoSun,                                  !- Sun Exposure
  NoWind,                                 !- Wind Exposure
  ,                                       !- View Factor to Ground
  ,                                       !- Number of Vertices
  0, 0, 0,                                !- X,Y,Z Vertex 1 {m}
  0, 15.8632111090754, 0,                 !- X,Y,Z Vertex 2 {m}
  15.8632111090754, 15.8632111090754, 0,  !- X,Y,Z Vertex 3 {m}
  15.8632111090754, 0, 0;                 !- X,Y,Z Vertex 4 {m}

OS:Surface,
  {84d8e136-2af9-450e-8a14-a0a7530ab7ec}, !- Handle
  Surface 26,                             !- Name
  Wall,                                   !- Surface Type
  ,                                       !- Construction Name
  {20f6482f-1b94-4bc6-ad68-817a57d4e632}, !- Space Name
  Surface,                                !- Outside Boundary Condition
  {305c1823-e59c-4a59-91a2-50309a742f46}, !- Outside Boundary Condition Object
  NoSun,                                  !- Sun Exposure
  NoWind,                                 !- Wind Exposure
  ,                                       !- View Factor to Ground
  ,                                       !- Number of Vertices
  0, 15.8632111090754, 4,                 !- X,Y,Z Vertex 1 {m}
  0, 15.8632111090754, 0,                 !- X,Y,Z Vertex 2 {m}
  0, 0, 0,                                !- X,Y,Z Vertex 3 {m}
  0, 0, 4;                                !- X,Y,Z Vertex 4 {m}

OS:Surface,
  {474d8082-e7b6-4b69-891b-f08b73d78da6}, !- Handle
  Surface 27,                             !- Name
  Wall,                                   !- Surface Type
  ,                                       !- Construction Name
  {20f6482f-1b94-4bc6-ad68-817a57d4e632}, !- Space Name
  Surface,                                !- Outside Boundary Condition
  {351a297a-2f0d-47cb-8e48-1a0feb4a5e1c}, !- Outside Boundary Condition Object
  NoSun,                                  !- Sun Exposure
  NoWind,                                 !- Wind Exposure
  ,                                       !- View Factor to Ground
  ,                                       !- Number of Vertices
  15.8632111090754, 15.8632111090754, 4,  !- X,Y,Z Vertex 1 {m}
  15.8632111090754, 15.8632111090754, 0,  !- X,Y,Z Vertex 2 {m}
  0, 15.8632111090754, 0,                 !- X,Y,Z Vertex 3 {m}
  0, 15.8632111090754, 4;                 !- X,Y,Z Vertex 4 {m}

OS:Surface,
  {8a25d5be-d6f5-40d2-b5e9-6672910cea1a}, !- Handle
  Surface 28,                             !- Name
  Wall,                                   !- Surface Type
  ,                                       !- Construction Name