
OS:Version,
  {066b4643-ba83-4be3-845e-bc687825d415}, !- Handle
  0.10.0;                                 !- Version Identifier

OS:BuildingStory,
  {1000526c-cad1-4eee-acb1-ee8781613197}, !- Handle
  Story 1,                                !- Name
  0,                                      !- Nominal Z Coordinate {m}
  4,                                      !- Nominal Floor to Floor Height {m}
  ,                                       !- Default Construction Set Name
  ,                                       !- Default Schedule Set Name
  ;                                       !- Group Rendering Name

OS:Space,
  {725c373c-31ea-42b3-9748-f37160d109d4}, !- Handle
  Story 1 West Perimeter Space,           !- Name
  ,                                       !- Space Type Name
  ,                                       !- Default Construction Set Name
  ,                                       !- Default Schedule Set Name
  -0,                                     !- Direction of Relative North {deg}
  0,                                      !- X Origin {m}
  0,                                      !- Y Origin {m}
  0,                                      !- Z Origin {m}
  {1000526c-cad1-4eee-acb1-ee8781613197}, !- Building Story Name
  {5ff1e68a-669d-46f7-aba7-d8d6de7fb793}; !- Thermal Zone Name

OS:Surface,
  {1a750970-39f1-4c32-9ba4-350a3f2f520f}, !- Handle
  Surface 1,                              !- Name
  Floor,                                  !- Surface Type
  ,                                       !- Construction Name
  {725c373c-31ea-42b3-9748-f37160d109d4}, !- Space Name
  Ground,                                 !- Outside Boundary Condition
  ,                                       !- Outside Boundary Condition Object
  NoSun,                                  !- Sun Exposure
  NoWind,                                 !- Wind Exposure
  ,                                       !- View Factor to Ground
  ,                                       !- Number of Vertices
  0, 0, 0,                                !- X,Y,Z Vertex 1 {m}
  0, 19.9749843554382, 0,                 !- X,Y,Z Vertex 2 {m}
  3, 16.9749843554382, 0,                 !- X,Y,Z Vertex 3 {m}
  3, 3, 0;                                !- X,Y,Z Vertex 4 {m}

OS:Surface,
  {1bcbd93d-64fc-445e-8672-b0359595b244}, !- Handle
  Surface 2,                              !- Name
  Wall,                                   !- Surface Type
  ,                                       !- Construction Name
  {725c373c-31ea-42b3-9748-f37160d109d4}, !- Space Name
  Outdoors,                               !- Outside Boundary Condition
  ,                                       !- Outside Boundary Condition Object
  SunExposed,                             !- Sun Exposure
  WindExposed,                            !- Wind Exposure
  ,                                       !- View Factor to Ground
  ,                                       !- Number of Vertices
  0, 19.9749843554382, 4,                 !- X,Y,Z Vertex 1 {m}
  0, 19.9749843554382, 0,                 !- X,Y,Z Vertex 2 {m}
  0, 0, 0,                                !- X,Y,Z Vertex 3 {m}
  0, 0, 4;                                !- X,Y,Z Vertex 4 {m}

OS:Surface,
  {f3adc498-ea67-4ae6-bb44-12c1f39a3891}, !- Handle
  Surface 3,                              !- Name
  Wall,                                   !- Surface Type
  ,                                       !- Construction Name
  {725c373c-31ea-42b3-9748-f37160d109d4}, !- Space Name
  Surface,                                !- Outside Boundary Condition
  {d704a545-38d4-4fcb-bcde-31519ed402ae}, !- Outside Boundary Condition Object
  NoSun,                                  !- Sun Exposure
  NoWind,                                 !- Wind Exposure
  ,                                       !- View Factor to Ground
  ,                                       !- Number of Vertices
  3, 16.9749843554382, 4,                 !- X,Y,Z Vertex 1 {m}
  3, 16.9749843554382, 0,                 !- X,Y,Z Vertex 2 {m}
  0, 19.9749843554382, 0,                 !- X,Y,Z Vertex 3 {m}
  0, 19.9749843554382, 4;                 !- X,Y,Z Vertex 4 {m}

OS:Surface,
  {94f2bcc1-039d-493d-9864-7e8ba9f3a413}, !- Handle
  Surface 4,                              !- Name
  Wall,                                   !- Surface Type
  ,                                       !- Construction Name
  {725c373c-31ea-42b3-9748-f37160d109d4}, !- Space Name
  Surface,                                !- Outside Boundary Condition
  {83eb47f0-40c4-44d9-b8ed-c1fff8dfb0e5}, !- Outside Boundary Condition Object
  NoSun,                                  !- Sun Exposure
  NoWind,                                 !- Wind Exposure
  ,                                       !- View Factor to Ground
  ,                                       !- Number of Vertices
  3, 3, 4,                                !- X,Y,Z Vertex 1 {m}
  3, 3, 0,                                !- X,Y,Z Vertex 2 {m}
  3, 16.9749843554382, 0,                 !- X,Y,Z Vertex 3 {m}
  3, 16.9749843554382, 4;                 !- X,Y,Z Vertex 4 {m}

OS:Surface,
  {2fa608c7-b97e-421e-b09d-3e1276857f84}, !- Handle
  Surface 5,                              !- Name
  Wall,                                   !- Surface Type
  ,                                       !- Construction Name
  {725c373c-31ea-42b3-9748-f37160d109d4}, !- Space Name
  Surface,                                !- Outside Boundary Condition
  {23c747de-8a7d-485f-ba6f-576f27e77136}, !- Outside Boundary Condition Object
  NoSun,                                  !- Sun Exposure
  NoWind,                                 !- Wind Exposure
  ,                                       !- View Factor to Ground
  ,                                       !- Number of Vertices
  0, 0, 4,                                !- X,Y,Z Vertex 1 {m}
  0, 0, 0,                                !- X,Y,Z Vertex 2 {m}
  3, 3, 0,                                !- X,Y,Z Vertex 3 {m}
  3, 3, 4;                                !- X,Y,Z Vertex 4 {m}

OS:Surface,
  {ad42b968-2069-441d-adf1-926083d5bf91}, !- Handle
  Surface 6,                              !- Name
  RoofCeiling,                            !- Surface Type
  ,                                       !- Construction Name
  {725c373c-31ea-42b3-9748-f37160d109d4}, !- Space Name
  Outdoors,                               !- Outside Boundary Condition
  ,                                       !- Outside Boundary Condition Object
  SunExposed,                             !- Sun Exposure
  WindExposed,                            !- Wind Exposure
  ,                                       !- View Factor to Ground
  ,                                       !- Number of Vertices
  3, 3, 4,                                !- X,Y,Z Vertex 1 {m}
  3, 16.9749843554382, 4,                 !- X,Y,Z Vertex 2 {m}
  0, 19.9749843554382, 4,                 !- X,Y,Z Vertex 3 {m}
  0, 0, 4;                                !- X,Y,Z Vertex 4 {m}

OS:Space,
  {653b01e7-dbe1-45f6-bec6-a5546c3eb1d4}, !- Handle
  Story 1 North Perimeter Space,          !- Name
  ,                                       !- Space Type Name
  ,                                       !- Default Construction Set Name
  ,                                       !- Default Schedule Set Name
  -0,                                     !- Direction of Relative North {deg}
  3,                                      !- X Origin {m}
  16.9749843554382,                       !- Y Origin {m}
  0,                                      !- Z Origin {m}
  {1000526c-cad1-4eee-acb1-ee8781613197}, !- Building Story Name
  {69cbd6b0-87e1-4ab7-99a2-47876c4747ca}; !- Thermal Zone Name

OS:Surface,
  {e0d0b2fa-b62e-43b7-87b0-10ea5938d03a}, !- Handle
  Surface 7,                              !- Name
  Floor,                                  !- Surface Type
  ,                                       !- Construction Name
  {653b01e7-dbe1-45f6-bec6-a5546c3eb1d4}, !- Space Name
  Ground,                                 !- Outside Boundary Condition
  ,                                       !- Outside Boundary Condition Object
  NoSun,                                  !- Sun Exposure
  NoWind,                                 !- Wind Exposure
  ,                                       !- View Factor to Ground
  ,                                       !- Number of Vertices
  -3, 3.00000000000002, 0,                !- X,Y,Z Vertex 1 {m}
  16.9749843554382, 3.00000000000002, 0,  !- X,Y,Z Vertex 2 {m}
  13.9749843554382, 2.1316282072803e-14, 0, !- X,Y,Z Vertex 3 {m}
  0, 2.1316282072803e-14, 0;              !- X,Y,Z Vertex 4 {m}

OS:Surface,
  {c9f6848c-49b6-46ae-90fa-2758db09cf05}, !- Handle
  Surface 8,                              !- Name
  Wall,                                   !- Surface Type
  ,                                       !- Construction Name
  {653b01e7-dbe1-45f6-bec6-a5546c3eb1d4}, !- Space Name
  Outdoors,                               !- Outside Boundary Condition
  ,                                       !- Outside Boundary Condition Object
  SunExposed,                             !- Sun Exposure
  WindExposed,                            !- Wind Exposure
  ,                                       !- View Factor to Ground
  ,                                       !- Number of Vertices
  16.9749843554382, 3.00000000000002, 4,  !- X,Y,Z Vertex 1 {m}
  16.9749843554382, 3.00000000000002, 0,  !- X,Y,Z Vertex 2 {m}
  -3, 3.00000000000002, 0,                !- X,Y,Z Vertex 3 {m}
  -3, 3.00000000000002, 4;                !- X,Y,Z Vertex 4 {m}

OS:Surface,
  {e0b23647-1c1e-44e5-8143-13380dedd0dc}, !- Handle
  Surface 9,                              !- Name
  Wall,                                   !- Surface Type
  ,                                       !- Construction Name
  {653b01e7-dbe1-45f6-bec6-a5546c3eb1d4}, !- Space Name
  Surface,                                !- Outside Boundary Condition
  {357d4924-ed03-45f5-bd1c-578eaa85f8b3}, !- Outside Boundary Condition Object
  NoSun,                                  !- Sun Exposure
  NoWind,                                 !- Wind Exposure
  ,                                       !- View Factor to Ground
  ,                                       !- Number of Vertices
  13.9749843554382, 2.1316282072803e-14, 4, !- X,Y,Z Vertex 1 {m}
  13.9749843554382, 2.1316282072803e-14, 0, !- X,Y,Z Vertex 2 {m}
  16.9749843554382, 3.00000000000002, 0,  !- X,Y,Z Vertex 3 {m}
  16.9749843554382, 3.00000000000002, 4;  !- X,Y,Z Vertex 4 {m}

OS:Surface,
  {1dc5781f-51b2-4fd7-a21c-f73b6010d74f}, !- Handle
  Surface 10,                             !- Name
  Wall,                                   !- Surface Type
  ,                                       !- Construction Name
  {653b01e7-dbe1-45f6-bec6-a5546c3eb1d4}, !- Space Name
  Surface,                                !- Outside Boundary Condition
  {ecc1f3dd-6e15-496e-a4e4-531184c039d3}, !- Outside Boundary Condition Object
  NoSun,                                  !- Sun Exposure
  NoWind,                                 !- Wind Exposure
  ,                                       !- View Factor to Ground
  ,                                       !- Number of Vertices
  0, 2.1316282072803e-14, 4,              !- X,Y,Z Vertex 1 {m}
  0, 2.1316282072803e-14, 0,              !- X,Y,Z Vertex 2 {m}
  13.9749843554382, 2.1316282072803e-14, 0, !- X,Y,Z Vertex 3 {m}
  13.9749843554382, 2.1316282072803e-14, 4; !- X,Y,Z Vertex 4 {m}

OS:Surface,
  {d704a545-38d4-4fcb-bcde-31519ed402ae}, !- Handle
  Surface 11,                             !- Name
  Wall,                                   !- Surface Type
  ,                                       !- Construction Name
  {653b01e7-dbe1-45f6-bec6-a5546c3eb1d4}, !- Space Name
  Surface,                                !- Outside Boundary Condition
  {f3adc498-ea67-4ae6-bb44-12c1f39a3891}, !- Outside Boundary Condition Object
  NoSun,                                  !- Sun Exposure
  NoWind,                                 !- Wind Exposure
  ,                                       !- View Factor to Ground
  ,                                       !- Number of Vertices
  -3, 3.00000000000002, 4,                !- X,Y,Z Vertex 1 {m}
  -3, 3.00000000000002, 0,                !- X,Y,Z Vertex 2 {m}
  0, 2.1316282072803e-14, 0,              !- X,Y,Z Vertex 3 {m}
  0, 2.1316282072803e-14, 4;              !- X,Y,Z Vertex 4 {m}

OS:Surface,
  {3f7d569c-ac85-4956-b9ab-1608a8941f34}, !- Handle
  Surface 12,                             !- Name
  RoofCeiling,                            !- Surface Type
  ,                                       !- Construction Name
  {653b01e7-dbe1-45f6-bec6-a5546c3eb1d4}, !- Space Name
  Outdoors,                               !- Outside Boundary Condition
  ,                                       !- Outside Boundary Condition Object
  SunExposed,                             !- Sun Exposure
  WindExposed,                            !- Wind Exposure
  ,                                       !- View Factor to Ground
  ,                                       !- Number of Vertices
  0, 2.1316282072803e-14, 4,              !- X,Y,Z Vertex 1 {m}
  13.9749843554382, 2.1316282072803e-14, 4, !- X,Y,Z Vertex 2 {m}
  16.9749843554382, 3.00000000000002, 4,  !- X,Y,Z Vertex 3 {m}
  -3, 3.00000000000002, 4;                !- X,Y,Z Vertex 4 {m}

OS:Space,
  {6ddf3820-982d-4dd4-afda-bc3631d33b01}, !- Handle
  Story 1 East Perimeter Space,           !- Name
  ,                                       !- Space Type Name
  ,                                       !- Default Construction Set Name
  ,                                       !- Default Schedule Set Name
  -0,                                     !- Direction of Relative North {deg}
  16.9749843554382,                       !- X Origin {m}
  3,                                      !- Y Origin {m}
  0,                                      !- Z Origin {m}
  {1000526c-cad1-4eee-acb1-ee8781613197}, !- Building Story Name
  {f3cb03a8-c34b-4ab6-8dae-6294ea7ef708}; !- Thermal Zone Name

OS:Surface,
  {6edfd0b7-d0ae-44bd-aeb0-1896b2258d40}, !- Handle
  Surface 13,                             !- Name
  Floor,                                  !- Surface Type
  ,                                       !- Construction Name
  {6ddf3820-982d-4dd4-afda-bc3631d33b01}, !- Space Name
  Ground,                                 !- Outside Boundary Condition
  ,                                       !- Outside Boundary Condition Object
  NoSun,                                  !- Sun Exposure
  NoWind,                                 !- Wind Exposure
  ,                                       !- View Factor to Ground
  ,                                       !- Number of Vertices
  3.00000000000002, 16.9749843554382, 0,  !- X,Y,Z Vertex 1 {m}
  3.00000000000002, -3, 0,                !- X,Y,Z Vertex 2 {m}
  2.1316282072803e-14, 0, 0,              !- X,Y,Z Vertex 3 {m}
  2.1316282072803e-14, 13.9749843554382, 0; !- X,Y,Z Vertex 4 {m}

OS:Surface,
  {87ec7187-53dc-4aac-b231-a7c64d42f6b1}, !- Handle
  Surface 14,                             !- Name
  Wall,                                   !- Surface Type
  ,                                       !- Construction Name
  {6ddf3820-982d-4dd4-afda-bc3631d33b01}, !- Space Name
  Outdoors,                               !- Outside Boundary Condition
  ,                                       !- Outside Boundary Condition Object
  SunExposed,                             !- Sun Exposure
  WindExposed,                            !- Wind Exposure
  ,                                       !- View Factor to Ground
  ,                                       !- Number of Vertices
  3.00000000000002, -3, 4,                !- X,Y,Z Vertex 1 {m}
  3.00000000000002, -3, 0,                !- X,Y,Z Vertex 2 {m}
  3.00000000000002, 16.9749843554382, 0,  !- X,Y,Z Vertex 3 {m}
  3.00000000000002, 16.9749843554382, 4;  !- X,Y,Z Vertex 4 {m}

OS:Surface,
  {3300214b-0645-412e-9f1f-e2727cba1fcd}, !- Handle
  Surface 15,                             !- Name
  Wall,                                   !- Surface Type
  ,                                       !- Construction Name
  {6ddf3820-982d-4dd4-afda-bc3631d33b01}, !- Space Name
  Surface,                                !- Outside Boundary Condition
  {4198fdb5-cdbc-44e7-84da-2d37e3a4ae5f}, !- Outside Boundary Condition Object
  NoSun,                                  !- Sun Exposure
  NoWind,                                 !- Wind Exposure
  ,                                       !- View Factor to Ground
  ,                                       !- Number of Vertices
  2.1316282072803e-14, 0, 4,              !- X,Y,Z Vertex 1 {m}
  2.1316282072803e-14, 0, 0,              !- X,Y,Z Vertex 2 {m}
  3.00000000000002, -3, 0,                !- X,Y,Z Vertex 3 {m}
  3.00000000000002, -3, 4;                !- X,Y,Z Vertex 4 {m}

OS:Surface,
  {4f77d9ca-bfb2-4822-9cf4-6a4092489460}, !- Handle
  Surface 16,                             !- Name
  Wall,                                   !- Surface Type
  ,                                       !- Construction Name
  {6ddf3820-982d-4dd4-afda-bc3631d33b01}, !- Space Name
  Surface,                                !- Outside Boundary Condition
  {256db5d0-985c-4772-b24a-f829149f31c4}, !- Outside Boundary Condition Object
  NoSun,                                  !- Sun Exposure
  NoWind,                                 !- Wind Exposure
  ,                                       !- View Factor to Ground
  ,                                       !- Number of Vertices
  2.1316282072803e-14, 13.9749843554382, 4, !- X,Y,Z Vertex 1 {m}
  2.1316282072803e-14, 13.9749843554382, 0, !- X,Y,Z Vertex 2 {m}
  2.1316282072803e-14, 0, 0,              !- X,Y,Z Vertex 3 {m}
  2.1316282072803e-14, 0, 4;              !- X,Y,Z Vertex 4 {m}

OS:Surface,
  {357d4924-ed03-45f5-bd1c-578eaa85f8b3}, !- Handle
  Surface 17,                             !- Name
  Wall,                                   !- Surface Type
  ,                                       !- Construction Name
  {6ddf3820-982d-4dd4-afda-bc3631d33b01}, !- Space Name
  Surface,                                !- Outside Boundary Condition
  {e0b23647-1c1e-44e5-8143-13380dedd0dc}, !- Outside Boundary Condition Object
  NoSun,                                  !- Sun Exposure
  NoWind,                                 !- Wind Exposure
  ,                                       !- View Factor to Ground
  ,                                       !- Number of Vertices
  3.00000000000002, 16.9749843554382, 4,  !- X,Y,Z Vertex 1 {m}
  3.00000000000002, 16.9749843554382, 0,  !- X,Y,Z Vertex 2 {m}
  2.1316282072803e-14, 13.9749843554382, 0, !- X,Y,Z Vertex 3 {m}
  2.1316282072803e-14, 13.9749843554382, 4; !- X,Y,Z Vertex 4 {m}

OS:Surface,
  {cf2d0fdf-2db3-42b1-85a5-c5b1e12c6644}, !- Handle
  Surface 18,                             !- Name
  RoofCeiling,                            !- Surface Type
  ,                                       !- Construction Name
  {6ddf3820-982d-4dd4-afda-bc3631d33b01}, !- Space Name
  Outdoors,                               !- Outside Boundary Condition
  ,                                       !- Outside Boundary Condition Object
  SunExposed,                             !- Sun Exposure
  WindExposed,                            !- Wind Exposure
  ,                                       !- View Factor to Ground
  ,                                       !- Number of Vertices
  2.1316282072803e-14, 13.9749843554382, 4, !- X,Y,Z Vertex 1 {m}
  2.1316282072803e-14, 0, 4,              !- X,Y,Z Vertex 2 {m}
  3.00000000000002, -3, 4,                !- X,Y,Z Vertex 3 {m}
  3.00000000000002, 16.9749843554382, 4;  !- X,Y,Z Vertex 4 {m}

OS:Space,
  {f3e8dab9-e1c1-439c-b51b-25ec4ae34f05}, !- Handle
  Story 1 South Perimeter Space,          !- Name
  ,                                       !- Space Type Name
  ,                                       !- Default Construction Set Name
  ,                                       !- Default Schedule Set Name
  -0,                                     !- Direction of Relative North {deg}
  0,                                      !- X Origin {m}
  0,                                      !- Y Origin {m}
  0,                                      !- Z Origin {m}
  {1000526c-cad1-4eee-acb1-ee8781613197}, !- Building Story Name
  {efd03446-541d-49d6-84a2-4bac97b723eb}; !- Thermal Zone Name

OS:Surface,
  {ee4b9479-24ca-4058-81c3-2a276868ccd8}, !- Handle
  Surface 19,                             !- Name
  Floor,                                  !- Surface Type
  ,                                       !- Construction Name
  {f3e8dab9-e1c1-439c-b51b-25ec4ae34f05}, !- Space Name
  Ground,                                 !- Outside Boundary Condition
  ,                                       !- Outside Boundary Condition Object
  NoSun,                                  !- Sun Exposure
  NoWind,                                 !- Wind Exposure
  ,                                       !- View Factor to Ground
  ,                                       !- Number of Vertices
  19.9749843554382, 0, 0,                 !- X,Y,Z Vertex 1 {m}
  0, 0, 0,                                !- X,Y,Z Vertex 2 {m}
  3, 3, 0,                                !- X,Y,Z Vertex 3 {m}
  16.9749843554382, 3, 0;                 !- X,Y,Z Vertex 4 {m}

OS:Surface,
  {7f227114-9c91-4ba0-b9b3-da3027adbda8}, !- Handle
  Surface 20,                             !- Name
  Wall,                                   !- Surface Type
  ,                                       !- Construction Name
  {f3e8dab9-e1c1-439c-b51b-25ec4ae34f05}, !- Space Name
  Outdoors,                               !- Outside Boundary Condition
  ,                                       !- Outside Boundary Condition Object
  SunExposed,                             !- Sun Exposure
  WindExposed,                            !- Wind Exposure
  ,                                       !- View Factor to Ground
  ,                                       !- Number of Vertices
  0, 0, 4,                                !- X,Y,Z Vertex 1 {m}
  0, 0, 0,                                !- X,Y,Z Vertex 2 {m}
  19.9749843554382, 0, 0,                 !- X,Y,Z Vertex 3 {m}
  19.9749843554382, 0, 4;                 !- X,Y,Z Vertex 4 {m}

OS:Surface,
  {23c747de-8a7d-485f-ba6f-576f27e77136}, !- Handle
  Surface 21,                             !- Name
  Wall,                                   !- Surface Type
  ,                                       !- Construction Name
  {f3e8dab9-e1c1-439c-b51b-25ec4ae34f05}, !- Space Name
  Surface,                                !- Outside Boundary Condition
  {2fa608c7-b97e-421e-b09d-3e1276857f84}, !- Outside Boundary Condition Object
  NoSun,                                  !- Sun Exposure
  NoWind,                                 !- Wind Exposure
  ,                                       !- View Factor to Ground
  ,                                       !- Number of Vertices
  3, 3, 4,                                !- X,Y,Z Vertex 1 {m}
  3, 3, 0,                                !- X,Y,Z Vertex 2 {m}
  0, 0, 0,                                !- X,Y,Z Vertex 3 {m}
  0, 0, 4;                                !- X,Y,Z Vertex 4 {m}

OS:Surface,
  {d877b830-0537-4d7c-961e-6d28098c2ee5}, !- Handle
  Surface 22,                             !- Name
  Wall,                                   !- Surface Type
  ,                                       !- Construction Name
  {f3e8dab9-e1c1-439c-b51b-25ec4ae34f05}, !- Space Name
  Surface,                                !- Outside Boundary Condition
  {7c1607a1-0850-44c0-a782-101be3f2987a}, !- Outside Boundary Condition Object
  NoSun,                                  !- Sun Exposure
  NoWind,                                 !- Wind Exposure
  ,                                       !- View Factor to Ground
  ,                                       !- Number of Vertices
  16.9749843554382, 3, 4,                 !- X,Y,Z Vertex 1 {m}
  16.9749843554382, 3, 0,                 !- X,Y,Z Vertex 2 {m}
  3, 3, 0,                                !- X,Y,Z Vertex 3 {m}
  3, 3, 4;                                !- X,Y,Z Vertex 4 {m}

OS:Surface,
  {4198fdb5-cdbc-44e7-84da-2d37e3a4ae5f}, !- Handle
  Surface 23,                             !- Name
  Wall,                                   !- Surface Type
  ,                                       !- Construction Name
  {f3e8dab9-e1c1-439c-b51b-25ec4ae34f05}, !- Space Name
  Surface,                                !- Outside Boundary Condition
  {3300214b-0645-412e-9f1f-e2727cba1fcd}, !- Outside Boundary Condition Object
  NoSun,                                  !- Sun Exposure
  NoWind,                                 !- Wind Exposure
  ,                                       !- View Factor to Ground
  ,                                       !- Number of Vertices
  19.9749843554382, 0, 4,                 !- X,Y,Z Vertex 1 {m}
  19.9749843554382, 0, 0,                 !- X,Y,Z Vertex 2 {m}
  16.9749843554382, 3, 0,                 !- X,Y,Z Vertex 3 {m}
  16.9749843554382, 3, 4;                 !- X,Y,Z Vertex 4 {m}

OS:Surface,
  {f6051127-219a-4a49-bad1-2ccea961284a}, !- Handle
  Surface 24,                             !- Name
  RoofCeiling,                            !- Surface Type
  ,                                       !- Construction Name
  {f3e8dab9-e1c1-439c-b51b-25ec4ae34f05}, !- Space Name
  Outdoors,                               !- Outside Boundary Condition
  ,                                       !- Outside Boundary Condition Object
  SunExposed,                             !- Sun Exposure
  WindExposed,                            !- Wind Exposure
  ,                                       !- View Factor to Ground
  ,                                       !- Number of Vertices
  16.9749843554382, 3, 4,                 !- X,Y,Z Vertex 1 {m}
  3, 3, 4,                                !- X,Y,Z Vertex 2 {m}
  0, 0, 4,                                !- X,Y,Z Vertex 3 {m}
  19.9749843554382, 0, 4;                 !- X,Y,Z Vertex 4 {m}

OS:Space,
  {c1998b05-b6e4-496a-beec-f7a03eb0e62f}, !- Handle
  Story 1 Core Space,                     !- Name
  ,                                       !- Space Type Name
  ,                                       !- Default Construction Set Name
  ,                                       !- Default Schedule Set Name
  -0,                                     !- Direction of Relative North {deg}
  3,                                      !- X Origin {m}
  3,                                      !- Y Origin {m}
  0,                                      !- Z Origin {m}
  {1000526c-cad1-4eee-acb1-ee8781613197}, !- Building Story Name
  {5831e457-cb6b-42e5-86a9-baec2a69a8f2}; !- Thermal Zone Name

OS:Surface,
  {2e9ef5fe-9075-4580-bdda-11979b6a76ae}, !- Handle
  Surface 25,                             !- Name
  Floor,                                  !- Surface Type
  ,                                       !- Construction Name
  {c1998b05-b6e4-496a-beec-f7a03eb0e62f}, !- Space Name
  Ground,                                 !- Outside Boundary Condition
  ,                                       !- Outside Boundary Condition Object
  NoSun,                                  !- Sun Exposure
  NoWind,                                 !- Wind Exposure
  ,                                       !- View Factor to Ground
  ,                                       !- Number of Vertices
  0, 0, 0,                                !- X,Y,Z Vertex 1 {m}
  0, 13.9749843554382, 0,                 !- X,Y,Z Vertex 2 {m}
  13.9749843554382, 13.9749843554382, 0,  !- X,Y,Z Vertex 3 {m}
  13.9749843554382, 0, 0;                 !- X,Y,Z Vertex 4 {m}

OS:Surface,
  {83eb47f0-40c4-44d9-b8ed-c1fff8dfb0e5}, !- Handle
  Surface 26,                             !- Name
  Wall,                                   !- Surface Type
  ,                                       !- Construction Name
  {c1998b05-b6e4-496a-beec-f7a03eb0e62f}, !- Space Name
  Surface,                                !- Outside Boundary Condition
  {94f2bcc1-039d-493d-9864-7e8ba9f3a413}, !- Outside Boundary Condition Object
  NoSun,                                  !- Sun Exposure
  NoWind,                                 !- Wind Exposure
  ,                                       !- View Factor to Ground
  ,                                       !- Number of Vertices
  0, 13.9749843554382, 4,                 !- X,Y,Z Vertex 1 {m}
  0, 13.9749843554382, 0,                 !- X,Y,Z Vertex 2 {m}
  0, 0, 0,                                !- X,Y,Z Vertex 3 {m}
  0, 0, 4;                                !- X,Y,Z Vertex 4 {m}

OS:Surface,
  {ecc1f3dd-6e15-496e-a4e4-531184c039d3}, !- Handle
  Surface 27,                             !- Name
  Wall,                                   !- Surface Type
  ,                                       !- Construction Name
  {c1998b05-b6e4-496a-beec-f7a03eb0e62f}, !- Space Name
  Surface,                                !- Outside Boundary Condition
  {1dc5781f-51b2-4fd7-a21c-f73b6010d74f}, !- Outside Boundary Condition Object
  NoSun,                                  !- Sun Exposure
  NoWind,                                 !- Wind Exposure
  ,                                       !- View Factor to Ground
  ,                                       !- Number of Vertices
  13.9749843554382, 13.9749843554382, 4,  !- X,Y,Z Vertex 1 {m}
  13.9749843554382, 13.9749843554382, 0,  !- X,Y,Z Vertex 2 {m}
  0, 13.9749843554382, 0,                 !- X,Y,Z Vertex 3 {m}
  0, 13.9749843554382, 4;                 !- X,Y,Z Vertex 4 {m}

OS:Surface,
  {256db5d0-985c-4772-b24a-f829149f31c4}, !- Handle
  Surface 28,                             !- Name
  Wall,                                   !- Surface Type
  ,                                       !- Construction Name