
OS:Version,
  {cb2d4234-3ef7-47f6-b6be-97c96dbccc98}, !- Handle
  0.10.0;                                 !- Version Identifier

OS:BuildingStory,
  {1e7b0f10-724f-4398-b97b-9c17b004973c}, !- Handle
  Story 1,                                !- Name
  0,                                      !- Nominal Z Coordinate {m}
  4,                                      !- Nominal Floor to Floor Height {m}
  ,                                       !- Default Construction Set Name
  ,                                       !- Default Schedule Set Name
  ;                                       !- Group Rendering Name

OS:Space,
  {5aa4e7bb-f41a-48d8-abdd-077c78fbd28c}, !- Handle
  Story 1 West Perimeter Space,           !- Name
  ,                                       !- Space Type Name
  ,                                       !- Default Construction Set Name
  ,                                       !- Default Schedule Set Name
  -0,                                     !- Direction of Relative North {deg}
  0,                                      !- X Origin {m}
  0,                                      !- Y Origin {m}
  0,                                      !- Z Origin {m}
  {1e7b0f10-724f-4398-b97b-9c17b004973c}, !- Building Story Name
  {4b3041ae-ad9a-4ed5-9ae2-dcf2e4e6acdd}; !- Thermal Zone Name

OS:Surface,
  {eb014bcd-7ea3-4ef2-bf1e-b970a7b10188}, !- Handle
  Surface 1,                              !- Name
  Floor,                                  !- Surface Type
  ,                                       !- Construction Name
  {5aa4e7bb-f41a-48d8-abdd-077c78fbd28c}, !- Space Name
  Ground,                                 !- Outside Boundary Condition
  ,                                       !- Outside Boundary Condition Object
  NoSun,                                  !- Sun Exposure
  NoWind,                                 !- Wind Exposure
  ,                                       !- View Factor to Ground
  ,                                       !- Number of Vertices
  0, 0, 0,                                !- X,Y,Z Vertex 1 {m}
  0, 19.94993734326, 0,                   !- X,Y,Z Vertex 2 {m}
  3, 16.94993734326, 0,                   !- X,Y,Z Vertex 3 {m}
  3, 3, 0;                                !- X,Y,Z Vertex 4 {m}

OS:Surface,
  {03d84372-a3e8-4e1d-853f-bf88bc2013d6}, !- Handle
  Surface 2,                              !- Name
  Wall,                                   !- Surface Type
  ,                                       !- Construction Name
  {5aa4e7bb-f41a-48d8-abdd-077c78fbd28c}, !- Space Name
  Outdoors,                               !- Outside Boundary Condition
  ,                                       !- Outside Boundary Condition Object
  SunExposed,                             !- Sun Exposure
  WindExposed,                            !- Wind Exposure
  ,                                       !- View Factor to Ground
  ,                                       !- Number of Vertices
  0, 19.94993734326, 4,                   !- X,Y,Z Vertex 1 {m}
  0, 19.94993734326, 0,                   !- X,Y,Z Vertex 2 {m}
  0, 0, 0,                                !- X,Y,Z Vertex 3 {m}
  0, 0, 4;                                !- X,Y,Z Vertex 4 {m}

OS:Surface,
  {6682ed0e-9b9a-4883-9c42-7c07923951e6}, !- Handle
  Surface 3,                              !- Name
  Wall,                                   !- Surface Type
  ,                                       !- Construction Name
  {5aa4e7bb-f41a-48d8-abdd-077c78fbd28c}, !- Space Name
  Surface,                                !- Outside Boundary Condition
  {2aadfb15-0979-42e7-b216-2776859728dc}, !- Outside Boundary Condition Object
  NoSun,                                  !- Sun Exposure
  NoWind,                                 !- Wind Exposure
  ,                                       !- View Factor to Ground
  ,                                       !- Number of Vertices
  3, 16.94993734326, 4,                   !- X,Y,Z Vertex 1 {m}
  3, 16.94993734326, 0,                   !- X,Y,Z Vertex 2 {m}
  0, 19.94993734326, 0,                   !- X,Y,Z Vertex 3 {m}
  0, 19.94993734326, 4;                   !- X,Y,Z Vertex 4 {m}

OS:Surface,
  {9c905bbf-82b5-48d7-a652-3750880a16b1}, !- Handle
  Surface 4,                              !- Name
  Wall,                                   !- Surface Type
  ,                                       !- Construction Name
  {5aa4e7bb-f41a-48d8-abdd-077c78fbd28c}, !- Space Name
  Surface,                                !- Outside Boundary Condition
  {9bcc8a9e-3d8b-4e9f-897b-d3313c60fa9d}, !- Outside Boundary Condition Object
  NoSun,                                  !- Sun Exposure
  NoWind,                                 !- Wind Exposure
  ,                                       !- View Factor to Ground
  ,                                       !- Number of Vertices
  3, 3, 4,                                !- X,Y,Z Vertex 1 {m}
  3, 3, 0,                                !- X,Y,Z Vertex 2 {m}
  3, 16.94993734326, 0,                   !- X,Y,Z Vertex 3 {m}
  3, 16.94993734326, 4;                   !- X,Y,Z Vertex 4 {m}

OS:Surface,
  {63f9704a-ab3b-43ec-b6ac-645017a5c765}, !- Handle
  Surface 5,                              !- Name
  Wall,                                   !- Surface Type
  ,                                       !- Construction Name
  {5aa4e7bb-f41a-48d8-abdd-077c78fbd28c}, !- Space Name
  Surface,                                !- Outside Boundary Condition
  {b7daa2b1-887d-4923-bf30-2cd09b714dd9}, !- Outside Boundary Condition Object
  NoSun,                                  !- Sun Exposure
  NoWind,                                 !- Wind Exposure
  ,                                       !- View Factor to Ground
  ,                                       !- Number of Vertices
  0, 0, 4,                                !- X,Y,Z Vertex 1 {m}
  0, 0, 0,                                !- X,Y,Z Vertex 2 {m}
  3, 3, 0,                                !- X,Y,Z Vertex 3 {m}
  3, 3, 4;                                !- X,Y,Z Vertex 4 {m}

OS:Surface,
  {4f4bd114-26e4-4ad7-be94-6af50a8c4a37}, !- Handle
  Surface 6,                              !- Name
  RoofCeiling,                            !- Surface Type
  ,                                       !- Construction Name
  {5aa4e7bb-f41a-48d8-abdd-077c78fbd28c}, !- Space Name
  Outdoors,                               !- Outside Boundary Condition
  ,                                       !- Outside Boundary Condition Object
  SunExposed,                             !- Sun Exposure
  WindExposed,                            !- Wind Exposure
  ,                                       !- View Factor to Ground
  ,                                       !- Number of Vertices
  3, 3, 4,                                !- X,Y,Z Vertex 1 {m}
  3, 16.94993734326, 4,                   !- X,Y,Z Vertex 2 {m}
  0, 19.94993734326, 4,                   !- X,Y,Z Vertex 3 {m}
  0, 0, 4;                                !- X,Y,Z Vertex 4 {m}

OS:Space,
  {1f82addd-007f-499c-9c5c-6b3b9be9b8d2}, !- Handle
  Story 1 North Perimeter Space,          !- Name
  ,                                       !- Space Type Name
  ,                                       !- Default Construction Set Name
  ,                                       !- Default Schedule Set Name
  -0,                                     !- Direction of Relative North {deg}
  3,                                      !- X Origin {m}
  16.94993734326,                         !- Y Origin {m}
  0,                                      !- Z Origin {m}
  {1e7b0f10-724f-4398-b97b-9c17b004973c}, !- Building Story Name
  {cdb8c84e-f7fe-40e0-96b2-f8252a8cd34c}; !- Thermal Zone Name

OS:Surface,
  {cbafa701-e00a-48f5-be4d-a7c1a094c527}, !- Handle
  Surface 7,                              !- Name
  Floor,                                  !- Surface Type
  ,                                       !- Construction Name
  {1f82addd-007f-499c-9c5c-6b3b9be9b8d2}, !- Space Name
  Ground,                                 !- Outside Boundary Condition
  ,                                       !- Outside Boundary Condition Object
  NoSun,                                  !- Sun Exposure
  NoWind,                                 !- Wind Exposure
  ,                                       !- View Factor to Ground
  ,                                       !- Number of Vertices
  -3, 3, 0,                               !- X,Y,Z Vertex 1 {m}
  16.94993734326, 3, 0,                   !- X,Y,Z Vertex 2 {m}
  13.94993734326, -3.5527136788005e-15, 0, !- X,Y,Z Vertex 3 {m}
  0, -3.5527136788005e-15, 0;             !- X,Y,Z Vertex 4 {m}

OS:Surface,
  {6501a615-87ee-4c2f-9271-581fe3af784c}, !- Handle
  Surface 8,                              !- Name
  Wall,                                   !- Surface Type
  ,                                       !- Construction Name
  {1f82addd-007f-499c-9c5c-6b3b9be9b8d2}, !- Space Name
  Outdoors,                               !- Outside Boundary Condition
  ,                                       !- Outside Boundary Condition Object
  SunExposed,                             !- Sun Exposure
  WindExposed,                            !- Wind Exposure
  ,                                       !- View Factor to Ground
  ,                                       !- Number of Vertices
  16.94993734326, 3, 4,                   !- X,Y,Z Vertex 1 {m}
  16.94993734326, 3, 0,                   !- X,Y,Z Vertex 2 {m}
  -3, 3, 0,                               !- X,Y,Z Vertex 3 {m}
  -3, 3, 4;                               !- X,Y,Z Vertex 4 {m}

OS:Surface,
  {a7707d31-d6a2-4ab0-ac47-340266ca1bbc}, !- Handle
  Surface 9,                              !- Name
  Wall,                                   !- Surface Type
  ,                                       !- Construction Name
  {1f82addd-007f-499c-9c5c-6b3b9be9b8d2}, !- Space Name
  Surface,                                !- Outside Boundary Condition
  {a5d3824e-25c0-4e10-b94e-66dd4bd23b2e}, !- Outside Boundary Condition Object
  NoSun,                                  !- Sun Exposure
  NoWind,                                 !- Wind Exposure
  ,                                       !- View Factor to Ground
  ,                                       !- Number of Vertices
  13.94993734326, -3.5527136788005e-15, 4, !- X,Y,Z Vertex 1 {m}
  13.94993734326, -3.5527136788005e-15, 0, !- X,Y,Z Vertex 2 {m}
  16.94993734326, 3, 0,                   !- X,Y,Z Vertex 3 {m}
  16.94993734326, 3, 4;                   !- X,Y,Z Vertex 4 {m}

OS:Surface,
  {56a49786-061d-48d0-92e8-9b03abf124cb}, !- Handle
  Surface 10,                             !- Name
  Wall,                                   !- Surface Type
  ,                                       !- Construction Name
  {1f82addd-007f-499c-9c5c-6b3b9be9b8d2}, !- Space Name
  Surface,                                !- Outside Boundary Condition
  {eda6eddd-4118-4edc-ac31-98f37f13e1c0}, !- Outside Boundary Condition Object
  NoSun,                                  !- Sun Exposure
  NoWind,                                 !- Wind Exposure
  ,                                       !- View Factor to Ground
  ,                                       !- Number of Vertices
  0, -3.5527136788005e-15, 4,             !- X,Y,Z Vertex 1 {m}
  0, -3.5527136788005e-15, 0,             !- X,Y,Z Vertex 2 {m}
  13.94993734326, -3.5527136788005e-15, 0, !- X,Y,Z Vertex 3 {m}
  13.94993734326, -3.5527136788005e-15, 4; !- X,Y,Z Vertex 4 {m}

OS:Surface,
  {2aadfb15-0979-42e7-b216-2776859728dc}, !- Handle
  Surface 11,                             !- Name
  Wall,                                   !- Surface Type
  ,                                       !- Construction Name
  {1f82addd-007f-499c-9c5c-6b3b9be9b8d2}, !- Space Name
  Surface,                                !- Outside Boundary Condition
  {6682ed0e-9b9a-4883-9c42-7c07923951e6}, !- Outside Boundary Condition Object
  NoSun,                                  !- Sun Exposure
  NoWind,                                 !- Wind Exposure
  ,                                       !- View Factor to Ground
  ,                                       !- Number of Vertices
  -3, 3, 4,                               !- X,Y,Z Vertex 1 {m}
  -3, 3, 0,                               !- X,Y,Z Vertex 2 {m}
  0, -3.5527136788005e-15, 0,             !- X,Y,Z Vertex 3 {m}
  0, -3.5527136788005e-15, 4;             !- X,Y,Z Vertex 4 {m}

OS:Surface,
  {4018f665-0977-43ef-9708-8dc759b9b88e}, !- Handle
  Surface 12,                             !- Name
  RoofCeiling,                            !- Surface Type
  ,                                       !- Construction Name
  {1f82addd-007f-499c-9c5c-6b3b9be9b8d2}, !- Space Name
  Outdoors,                               !- Outside Boundary Condition
  ,                                       !- Outside Boundary Condition Object
  SunExposed,                             !- Sun Exposure
  WindExposed,                            !- Wind Exposure
  ,                                       !- View Factor to Ground
  ,                                       !- Number of Vertices
  0, -3.5527136788005e-15, 4,             !- X,Y,Z Vertex 1 {m}
  13.94993734326, -3.5527136788005e-15, 4, !- X,Y,Z Vertex 2 {m}
  16.94993734326, 3, 4,                   !- X,Y,Z Vertex 3 {m}
  -3, 3, 4;                               !- X,Y,Z Vertex 4 {m}

OS:Space,
  {5d008555-e81b-4167-823d-34a3899787a7}, !- Handle
  Story 1 East Perimeter Space,           !- Name
  ,                                       !- Space Type Name
  ,                                       !- Default Construction Set Name
  ,                                       !- Default Schedule Set Name
  -0,                                     !- Direction of Relative North {deg}
  16.94993734326,                         !- X Origin {m}
  3,                                      !- Y Origin {m}
  0,                                      !- Z Origin {m}
  {1e7b0f10-724f-4398-b97b-9c17b004973c}, !- Building Story Name
  {74b96aa1-6de8-430e-95d9-a6ba7c43da5b}; !- Thermal Zone Name

OS:Surface,
  {e6d71df2-3b3f-4507-924f-e610b003d4a5}, !- Handle
  Surface 13,                             !- Name
  Floor,                                  !- Surface Type
  ,                                       !- Construction Name
  {5d008555-e81b-4167-823d-34a3899787a7}, !- Space Name
  Ground,                                 !- Outside Boundary Condition
  ,                                       !- Outside Boundary Condition Object
  NoSun,                                  !- Sun Exposure
  NoWind,                                 !- Wind Exposure
  ,                                       !- View Factor to Ground
  ,                                       !- Number of Vertices
  3, 16.94993734326, 0,                   !- X,Y,Z Vertex 1 {m}
  3, -3, 0,                               !- X,Y,Z Vertex 2 {m}
  -3.5527136788005e-15, 0, 0,             !- X,Y,Z Vertex 3 {m}
  -3.5527136788005e-15, 13.94993734326, 0; !- X,Y,Z Vertex 4 {m}

OS:Surface,
  {8acd7ac1-3eb8-4b11-a807-7168deec00a4}, !- Handle
  Surface 14,                             !- Name
  Wall,                                   !- Surface Type
  ,                                       !- Construction Name
  {5d008555-e81b-4167-823d-34a3899787a7}, !- Space Name
  Outdoors,                               !- Outside Boundary Condition
  ,                                       !- Outside Boundary Condition Object
  SunExposed,                             !- Sun Exposure
  WindExposed,                            !- Wind Exposure
  ,                                       !- View Factor to Ground
  ,                                       !- Number of Vertices
  3, -3, 4,                               !- X,Y,Z Vertex 1 {m}
  3, -3, 0,                               !- X,Y,Z Vertex 2 {m}
  3, 16.94993734326, 0,                   !- X,Y,Z Vertex 3 {m}
  3, 16.94993734326, 4;                   !- X,Y,Z Vertex 4 {m}

OS:Surface,
  {81f92107-b57c-4e5c-8ede-22b96b5ce785}, !- Handle
  Surface 15,                             !- Name
  Wall,                                   !- Surface Type
  ,                                       !- Construction Name
  {5d008555-e81b-4167-823d-34a3899787a7}, !- Space Name
  Surface,                                !- Outside Boundary Condition
  {1ecabcfc-a4e1-46c0-aa51-07dce4d1bda5}, !- Outside Boundary Condition Object
  NoSun,                                  !- Sun Exposure
  NoWind,                                 !- Wind Exposure
  ,                                       !- View Factor to Ground
  ,                                       !- Number of Vertices
  -3.5527136788005e-15, 0, 4,             !- X,Y,Z Vertex 1 {m}
  -3.5527136788005e-15, 0, 0,             !- X,Y,Z Vertex 2 {m}
  3, -3, 0,                               !- X,Y,Z Vertex 3 {m}
  3, -3, 4;                               !- X,Y,Z Vertex 4 {m}

OS:Surface,
  {32e6a48c-8c67-4056-b7e2-554d3cec9ae1}, !- Handle
  Surface 16,                             !- Name
  Wall,                                   !- Surface Type
  ,                                       !- Construction Name
  {5d008555-e81b-4167-823d-34a3899787a7}, !- Space Name
  Surface,                                !- Outside Boundary Condition
  {d3bea4ec-ffb0-48c2-b189-3a8e8572f099}, !- Outside Boundary Condition Object
  NoSun,                                  !- Sun Exposure
  NoWind,                                 !- Wind Exposure
  ,                                       !- View Factor to Ground
  ,                                       !- Number of Vertices
  -3.5527136788005e-15, 13.94993734326, 4, !- X,Y,Z Vertex 1 {m}
  -3.5527136788005e-15, 13.94993734326, 0, !- X,Y,Z Vertex 2 {m}
  -3.5527136788005e-15, 0, 0,             !- X,Y,Z Vertex 3 {m}
  -3.5527136788005e-15, 0, 4;             !- X,Y,Z Vertex 4 {m}

OS:Surface,
  {a5d3824e-25c0-4e10-b94e-66dd4bd23b2e}, !- Handle
  Surface 17,                             !- Name
  Wall,                                   !- Surface Type
  ,                                       !- Construction Name
  {5d008555-e81b-4167-823d-34a3899787a7}, !- Space Name
  Surface,                                !- Outside Boundary Condition
  {a7707d31-d6a2-4ab0-ac47-340266ca1bbc}, !- Outside Boundary Condition Object
  NoSun,                                  !- Sun Exposure
  NoWind,                                 !- Wind Exposure
  ,                                       !- View Factor to Ground
  ,                                       !- Number of Vertices
  3, 16.94993734326, 4,                   !- X,Y,Z Vertex 1 {m}
  3, 16.94993734326, 0,                   !- X,Y,Z Vertex 2 {m}
  -3.5527136788005e-15, 13.94993734326, 0, !- X,Y,Z Vertex 3 {m}
  -3.5527136788005e-15, 13.94993734326, 4; !- X,Y,Z Vertex 4 {m}

OS:Surface,
  {784bc2d5-9d99-4584-8c92-8ed8e4c732a7}, !- Handle
  Surface 18,                             !- Name
  RoofCeiling,                            !- Surface Type
  ,                                       !- Construction Name
  {5d008555-e81b-4167-823d-34a3899787a7}, !- Space Name
  Outdoors,                               !- Outside Boundary Condition
  ,                                       !- Outside Boundary Condition Object
  SunExposed,                             !- Sun Exposure
  WindExposed,                            !- Wind Exposure
  ,                                       !- View Factor to Ground
  ,                                       !- Number of Vertices
  -3.5527136788005e-15, 13.94993734326, 4, !- X,Y,Z Vertex 1 {m}
  -3.5527136788005e-15, 0, 4,             !- X,Y,Z Vertex 2 {m}
  3, -3, 4,                               !- X,Y,Z Vertex 3 {m}
  3, 16.94993734326, 4;                   !- X,Y,Z Vertex 4 {m}

OS:Space,
  {73e19180-631d-4ade-891a-c14fe292ca59}, !- Handle
  Story 1 South Perimeter Space,          !- Name
  ,                                       !- Space Type Name
  ,                                       !- Default Construction Set Name
  ,                                       !- Default Schedule Set Name
  -0,                                     !- Direction of Relative North {deg}
  0,                                      !- X Origin {m}
  0,                                      !- Y Origin {m}
  0,                                      !- Z Origin {m}
  {1e7b0f10-724f-4398-b97b-9c17b004973c}, !- Building Story Name
  {6eba8579-6ce2-4828-9104-ecba4e64fd36}; !- Thermal Zone Name

OS:Surface,
  {56eaf1ce-1a52-445e-a78d-8eb19dc28ad7}, !- Handle
  Surface 19,                             !- Name
  Floor,                                  !- Surface Type
  ,                                       !- Construction Name
  {73e19180-631d-4ade-891a-c14fe292ca59}, !- Space Name
  Ground,                                 !- Outside Boundary Condition
  ,                                       !- Outside Boundary Condition Object
  NoSun,                                  !- Sun Exposure
  NoWind,                                 !- Wind Exposure
  ,                                       !- View Factor to Ground
  ,                                       !- Number of Vertices
  19.94993734326, 0, 0,                   !- X,Y,Z Vertex 1 {m}
  0, 0, 0,                                !- X,Y,Z Vertex 2 {m}
  3, 3, 0,                                !- X,Y,Z Vertex 3 {m}
  16.94993734326, 3, 0;                   !- X,Y,Z Vertex 4 {m}

OS:Surface,
  {8e9dc9d9-8a30-4980-8183-5478727a2de3}, !- Handle
  Surface 20,                             !- Name
  Wall,                                   !- Surface Type
  ,                                       !- Construction Name
  {73e19180-631d-4ade-891a-c14fe292ca59}, !- Space Name
  Outdoors,                               !- Outside Boundary Condition
  ,                                       !- Outside Boundary Condition Object
  SunExposed,                             !- Sun Exposure
  WindExposed,                            !- Wind Exposure
  ,                                       !- View Factor to Ground
  ,                                       !- Number of Vertices
  0, 0, 4,                                !- X,Y,Z Vertex 1 {m}
  0, 0, 0,                                !- X,Y,Z Vertex 2 {m}
  19.94993734326, 0, 0,                   !- X,Y,Z Vertex 3 {m}
  19.94993734326, 0, 4;                   !- X,Y,Z Vertex 4 {m}

OS:Surface,
  {b7daa2b1-887d-4923-bf30-2cd09b714dd9}, !- Handle
  Surface 21,                             !- Name
  Wall,                                   !- Surface Type
  ,                                       !- Construction Name
  {73e19180-631d-4ade-891a-c14fe292ca59}, !- Space Name
  Surface,                                !- Outside Boundary Condition
  {63f9704a-ab3b-43ec-b6ac-645017a5c765}, !- Outside Boundary Condition Object
  NoSun,                                  !- Sun Exposure
  NoWind,                                 !- Wind Exposure
  ,                                       !- View Factor to Ground
  ,                                       !- Number of Vertices
  3, 3, 4,                                !- X,Y,Z Vertex 1 {m}
  3, 3, 0,                                !- X,Y,Z Vertex 2 {m}
  0, 0, 0,                                !- X,Y,Z Vertex 3 {m}
  0, 0, 4;                                !- X,Y,Z Vertex 4 {m}

OS:Surface,
  {48617d3c-6503-4027-9c60-707bd8ffaba6}, !- Handle
  Surface 22,                             !- Name
  Wall,                                   !- Surface Type
  ,                                       !- Construction Name
  {73e19180-631d-4ade-891a-c14fe292ca59}, !- Space Name
  Surface,                                !- Outside Boundary Condition
  {17c9fcb0-c1a9-4915-bb94-381427e26fac}, !- Outside Boundary Condition Object
  NoSun,                                  !- Sun Exposure
  NoWind,                                 !- Wind Exposure
  ,                                       !- View Factor to Ground
  ,                                       !- Number of Vertices
  16.94993734326, 3, 4,                   !- X,Y,Z Vertex 1 {m}
  16.94993734326, 3, 0,                   !- X,Y,Z Vertex 2 {m}
  3, 3, 0,                                !- X,Y,Z Vertex 3 {m}
  3, 3, 4;                                !- X,Y,Z Vertex 4 {m}

OS:Surface,
  {1ecabcfc-a4e1-46c0-aa51-07dce4d1bda5}, !- Handle
  Surface 23,                             !- Name
  Wall,                                   !- Surface Type
  ,                                       !- Construction Name
  {73e19180-631d-4ade-891a-c14fe292ca59}, !- Space Name
  Surface,                                !- Outside Boundary Condition
  {81f92107-b57c-4e5c-8ede-22b96b5ce785}, !- Outside Boundary Condition Object
  NoSun,                                  !- Sun Exposure
  NoWind,                                 !- Wind Exposure
  ,                                       !- View Factor to Ground
  ,                                       !- Number of Vertices
  19.94993734326, 0, 4,                   !- X,Y,Z Vertex 1 {m}
  19.94993734326, 0, 0,                   !- X,Y,Z Vertex 2 {m}
  16.94993734326, 3, 0,                   !- X,Y,Z Vertex 3 {m}
  16.94993734326, 3, 4;                   !- X,Y,Z Vertex 4 {m}

OS:Surface,
  {f6dbb1d6-d760-4216-a11e-4329d06d46f5}, !- Handle
  Surface 24,                             !- Name
  RoofCeiling,                            !- Surface Type
  ,                                       !- Construction Name
  {73e19180-631d-4ade-891a-c14fe292ca59}, !- Space Name
  Outdoors,                               !- Outside Boundary Condition
  ,                                       !- Outside Boundary Condition Object
  SunExposed,                             !- Sun Exposure
  WindExposed,                            !- Wind Exposure
  ,                                       !- View Factor to Ground
  ,                                       !- Number of Vertices
  16.94993734326, 3, 4,                   !- X,Y,Z Vertex 1 {m}
  3, 3, 4,                                !- X,Y,Z Vertex 2 {m}
  0, 0, 4,                                !- X,Y,Z Vertex 3 {m}
  19.94993734326, 0, 4;                   !- X,Y,Z Vertex 4 {m}

OS:Space,
  {86b41df2-9b74-49de-9e19-3bdac731d18a}, !- Handle
  Story 1 Core Space,                     !- Name
  ,                                       !- Space Type Name
  ,                                       !- Default Construction Set Name
  ,                                       !- Default Schedule Set Name
  -0,                                     !- Direction of Relative North {deg}
  3,                                      !- X Origin {m}
  3,                                      !- Y Origin {m}
  0,                                      !- Z Origin {m}
  {1e7b0f10-724f-4398-b97b-9c17b004973c}, !- Building Story Name
  {4e46b965-c742-4687-8a12-3b6069f6aaf4}; !- Thermal Zone Name

OS:Surface,
  {223396c3-256b-4e3a-a72c-3ce006b7ec51}, !- Handle
  Surface 25,                             !- Name
  Floor,                                  !- Surface Type
  ,                                       !- Construction Name
  {86b41df2-9b74-49de-9e19-3bdac731d18a}, !- Space Name
  Ground,                                 !- Outside Boundary Condition
  ,                                       !- Outside Boundary Condition Object
  NoSun,                                  !- Sun Exposure
  NoWind,                                 !- Wind Exposure
  ,                                       !- View Factor to Ground
  ,                                       !- Number of Vertices
  0, 0, 0,                                !- X,Y,Z Vertex 1 {m}
  0, 13.94993734326, 0,                   !- X,Y,Z Vertex 2 {m}
  13.94993734326, 13.94993734326, 0,      !- X,Y,Z Vertex 3 {m}
  13.94993734326, 0, 0;                   !- X,Y,Z Vertex 4 {m}

OS:Surface,
  {9bcc8a9e-3d8b-4e9f-897b-d3313c60fa9d}, !- Handle
  Surface 26,                             !- Name
  Wall,                                   !- Surface Type
  ,                                       !- Construction Name
  {86b41df2-9b74-49de-9e19-3bdac731d18a}, !- Space Name
  Surface,                                !- Outside Boundary Condition
  {9c905bbf-82b5-48d7-a652-3750880a16b1}, !- Outside Boundary Condition Object
  NoSun,                                  !- Sun Exposure
  NoWind,                                 !- Wind Exposure
  ,                                       !- View Factor to Ground
  ,                                       !- Number of Vertices
  0, 13.94993734326, 4,                   !- X,Y,Z Vertex 1 {m}
  0, 13.94993734326, 0,                   !- X,Y,Z Vertex 2 {m}
  0, 0, 0,                                !- X,Y,Z Vertex 3 {m}
  0, 0, 4;                                !- X,Y,Z Vertex 4 {m}

OS:Surface,
  {eda6eddd-4118-4edc-ac31-98f37f13e1c0}, !- Handle
  Surface 27,                             !- Name
  Wall,                                   !- Surface Type
  ,                                       !- Construction Name
  {86b41df2-9b74-49de-9e19-3bdac731d18a}, !- Space Name
  Surface,                                !- Outside Boundary Condition
  {56a49786-061d-48d0-92e8-9b03abf124cb}, !- Outside Boundary Condition Object
  NoSun,                                  !- Sun Exposure
  NoWind,                                 !- Wind Exposure
  ,                                       !- View Factor to Ground
  ,                                       !- Number of Vertices
  13.94993734326, 13.94993734326, 4,      !- X,Y,Z Vertex 1 {m}
  13.94993734326, 13.94993734326, 0,      !- X,Y,Z Vertex 2 {m}
  0, 13.94993734326, 0,                   !- X,Y,Z Vertex 3 {m}
  0, 13.94993734326, 4;                   !- X,Y,Z Vertex 4 {m}

OS:Surface,
  {d3bea4ec-ffb0-48c2-b189-3a8e8572f099}, !- Handle
  Surface 28,                             !- Name
  Wall,                                   !- Surface Type
  ,                                       !- Construction Name
  {86b41df2-9b74-49de-9e19-3bdac731d18a}, !- Space Name