
OS:Version,
  {7e63a03e-838d-4ec6-bb2d-604c79ba62d5}, !- Handle
  0.10.0;                                 !- Version Identifier

OS:BuildingStory,
  {eafdd946-7876-4192-ac4b-63e18a8e5676}, !- Handle
  Story 1,                                !- Name
  0,                                      !- Nominal Z Coordinate {m}
  4,                                      !- Nominal Floor to Floor Height {m}
  ,                                       !- Default Construction Set Name
  ,                                       !- Default Schedule Set Name
  ;                                       !- Group Rendering Name

OS:Space,
  {ae919f36-5be4-44e2-a63f-1e97718e0ac4}, !- Handle
  Story 1 West Perimeter Space,           !- Name
  ,                                       !- Space Type Name
  ,                                       !- Default Construction Set Name
  ,                                       !- Default Schedule Set Name
  -0,                                     !- Direction of Relative North {deg}
  0,                                      !- X Origin {m}
  0,                                      !- Y Origin {m}
  0,                                      !- Z Origin {m}
  {eafdd946-7876-4192-ac4b-63e18a8e5676}, !- Building Story Name
  {2dafccca-b28c-4b6e-a897-cd40117e207c}; !- Thermal Zone Name

OS:Surface,
  {a6172054-03e7-4eb1-8c3a-2b486e110f2b}, !- Handle
  Surface 1,                              !- Name
  Floor,                                  !- Surface Type
  ,                                       !- Construction Name
  {ae919f36-5be4-44e2-a63f-1e97718e0ac4}, !- Space Name
  Ground,                                 !- Outside Boundary Condition
  ,                                       !- Outside Boundary Condition Object
  NoSun,                                  !- Sun Exposure
  NoWind,                                 !- Wind Exposure
  ,                                       !- View Factor to Ground
  ,                                       !- Number of Vertices
  0, 0, 0,                                !- X,Y,Z Vertex 1 {m}
  0, 19.9749843554382, 0,                 !- X,Y,Z Vertex 2 {m}
  3, 16.9749843554382, 0,                 !- X,Y,Z Vertex 3 {m}
  3, 3, 0;                                !- X,Y,Z Vertex 4 {m}

OS:Surface,
  {8091fa34-004f-4126-8033-3c2d9a9e5bc6}, !- Handle
  Surface 2,                              !- Name
  Wall,                                   !- Surface Type
  ,                                       !- Construction Name
  {ae919f36-5be4-44e2-a63f-1e97718e0ac4}, !- Space Name
  Outdoors,                               !- Outside Boundary Condition
  ,                                       !- Outside Boundary Condition Object
  SunExposed,                             !- Sun Exposure
  WindExposed,                            !- Wind Exposure
  ,                                       !- View Factor to Ground
  ,                                       !- Number of Vertices
  0, 19.9749843554382, 4,                 !- X,Y,Z Vertex 1 {m}
  0, 19.9749843554382, 0,                 !- X,Y,Z Vertex 2 {m}
  0, 0, 0,                                !- X,Y,Z Vertex 3 {m}
  0, 0, 4;                                !- X,Y,Z Vertex 4 {m}

OS:Surface,
  {a7bed775-0696-436b-9bf8-76bab9c12916}, !- Handle
  Surface 3,                              !- Name
  Wall,                                   !- Surface Type
  ,                                       !- Construction Name
  {ae919f36-5be4-44e2-a63f-1e97718e0ac4}, !- Space Name
  Surface,                                !- Outside Boundary Condition
  {9dce2dd2-5cb7-469b-b01d-35e02f39b61c}, !- Outside Boundary Condition Object
  NoSun,                                  !- Sun Exposure
  NoWind,                                 !- Wind Exposure
  ,                                       !- View Factor to Ground
  ,                                       !- Number of Vertices
  3, 16.9749843554382, 4,                 !- X,Y,Z Vertex 1 {m}
  3, 16.9749843554382, 0,                 !- X,Y,Z Vertex 2 {m}
  0, 19.9749843554382, 0,                 !- X,Y,Z Vertex 3 {m}
  0, 19.9749843554382, 4;                 !- X,Y,Z Vertex 4 {m}

OS:Surface,
  {c79d95ec-dcfa-4e7b-980a-02e28d64b8f9}, !- Handle
  Surface 4,                              !- Name
  Wall,                                   !- Surface Type
  ,                                       !- Construction Name
  {ae919f36-5be4-44e2-a63f-1e97718e0ac4}, !- Space Name
  Surface,                                !- Outside Boundary Condition
  {73755e59-35bb-4c2b-b224-1f271b64033d}, !- Outside Boundary Condition Object
  NoSun,                                  !- Sun Exposure
  NoWind,                                 !- Wind Exposure
  ,                                       !- View Factor to Ground
  ,                                       !- Number of Vertices
  3, 3, 4,                                !- X,Y,Z Vertex 1 {m}
  3, 3, 0,                                !- X,Y,Z Vertex 2 {m}
  3, 16.9749843554382, 0,                 !- X,Y,Z Vertex 3 {m}
  3, 16.9749843554382, 4;                 !- X,Y,Z Vertex 4 {m}

OS:Surface,
  {5068f6d8-884d-4d9c-8304-585c89e8ba6f}, !- Handle
  Surface 5,                              !- Name
  Wall,                                   !- Surface Type
  ,                                       !- Construction Name
  {ae919f36-5be4-44e2-a63f-1e97718e0ac4}, !- Space Name
  Surface,                                !- Outside Boundary Condition
  {fcd0be9b-318c-4864-a97f-22b98c7e0113}, !- Outside Boundary Condition Object
  NoSun,                                  !- Sun Exposure
  NoWind,                                 !- Wind Exposure
  ,                                       !- View Factor to Ground
  ,                                       !- Number of Vertices
  0, 0, 4,                                !- X,Y,Z Vertex 1 {m}
  0, 0, 0,                                !- X,Y,Z Vertex 2 {m}
  3, 3, 0,                                !- X,Y,Z Vertex 3 {m}
  3, 3, 4;                                !- X,Y,Z Vertex 4 {m}

OS:Surface,
  {534fded2-3424-4c4b-9ad2-3b742a02768c}, !- Handle
  Surface 6,                              !- Name
  RoofCeiling,                            !- Surface Type
  ,                                       !- Construction Name
  {ae919f36-5be4-44e2-a63f-1e97718e0ac4}, !- Space Name
  Outdoors,                               !- Outside Boundary Condition
  ,                                       !- Outside Boundary Condition Object
  SunExposed,                             !- Sun Exposure
  WindExposed,                            !- Wind Exposure
  ,                                       !- View Factor to Ground
  ,                                       !- Number of Vertices
  3, 3, 4,                                !- X,Y,Z Vertex 1 {m}
  3, 16.9749843554382, 4,                 !- X,Y,Z Vertex 2 {m}
  0, 19.9749843554382, 4,                 !- X,Y,Z Vertex 3 {m}
  0, 0, 4;                                !- X,Y,Z Vertex 4 {m}

OS:Space,
  {64684525-f4ea-47bd-8993-16af57028911}, !- Handle
  Story 1 North Perimeter Space,          !- Name
  ,                                       !- Space Type Name
  ,                                       !- Default Construction Set Name
  ,                                       !- Default Schedule Set Name
  -0,                                     !- Direction of Relative North {deg}
  3,                                      !- X Origin {m}
  16.9749843554382,                       !- Y Origin {m}
  0,                                      !- Z Origin {m}
  {eafdd946-7876-4192-ac4b-63e18a8e5676}, !- Building Story Name
  {7e526225-ba78-44e8-9017-c5408aa18a61}; !- Thermal Zone Name

OS:Surface,
  {a7cab2f2-936d-44fe-8bac-19d703b8ed59}, !- Handle
  Surface 7,                              !- Name
  Floor,                                  !- Surface Type
  ,                                       !- Construction Name
  {64684525-f4ea-47bd-8993-16af57028911}, !- Space Name
  Ground,                                 !- Outside Boundary Condition
  ,                                       !- Outside Boundary Condition Object
  NoSun,                                  !- Sun Exposure
  NoWind,                                 !- Wind Exposure
  ,                                       !- View Factor to Ground
  ,                                       !- Number of Vertices
  -3, 3.00000000000002, 0,                !- X,Y,Z Vertex 1 {m}
  16.9749843554382, 3.00000000000002, 0,  !- X,Y,Z Vertex 2 {m}
  13.9749843554382, 2.1316282072803e-14, 0, !- X,Y,Z Vertex 3 {m}
  0, 2.1316282072803e-14, 0;              !- X,Y,Z Vertex 4 {m}

OS:Surface,
  {da419fde-2731-4753-b2a1-fd65f049015b}, !- Handle
  Surface 8,                              !- Name
  Wall,                                   !- Surface Type
  ,                                       !- Construction Name
  {64684525-f4ea-47bd-8993-16af57028911}, !- Space Name
  Outdoors,                               !- Outside Boundary Condition
  ,                                       !- Outside Boundary Condition Object
  SunExposed,                             !- Sun Exposure
  WindExposed,                            !- Wind Exposure
  ,                                       !- View Factor to Ground
  ,                                       !- Number of Vertices
  16.9749843554382, 3.00000000000002, 4,  !- X,Y,Z Vertex 1 {m}
  16.9749843554382, 3.00000000000002, 0,  !- X,Y,Z Vertex 2 {m}
  -3, 3.00000000000002, 0,                !- X,Y,Z Vertex 3 {m}
  -3, 3.00000000000002, 4;                !- X,Y,Z Vertex 4 {m}

OS:Surface,
  {3e26a551-45f0-4b43-a388-143364b6c689}, !- Handle
  Surface 9,                              !- Name
  Wall,                                   !- Surface Type
  ,                                       !- Construction Name
  {64684525-f4ea-47bd-8993-16af57028911}, !- Space Name
  Surface,                                !- Outside Boundary Condition
  {de5c24cc-ecbe-4fe6-b1d0-e456943c3b54}, !- Outside Boundary Condition Object
  NoSun,                                  !- Sun Exposure
  NoWind,                                 !- Wind Exposure
  ,                                       !- View Factor to Ground
  ,                                       !- Number of Vertices
  13.9749843554382, 2.1316282072803e-14, 4, !- X,Y,Z Vertex 1 {m}
  13.9749843554382, 2.1316282072803e-14, 0, !- X,Y,Z Vertex 2 {m}
  16.9749843554382, 3.00000000000002, 0,  !- X,Y,Z Vertex 3 {m}
  16.9749843554382, 3.00000000000002, 4;  !- X,Y,Z Vertex 4 {m}

OS:Surface,
  {5d1e5c6c-5148-408e-bf3c-0dfa3f56f05a}, !- Handle
  Surface 10,                             !- Name
  Wall,                                   !- Surface Type
  ,                                       !- Construction Name
  {64684525-f4ea-47bd-8993-16af57028911}, !- Space Name
  Surface,                                !- Outside Boundary Condition
  {87e0aa75-a4e3-45d1-bf7d-e0a2ee4c18fb}, !- Outside Boundary Condition Object
  NoSun,                                  !- Sun Exposure
  NoWind,                                 !- Wind Exposure
  ,                                       !- View Factor to Ground
  ,                                       !- Number of Vertices
  0, 2.1316282072803e-14, 4,              !- X,Y,Z Vertex 1 {m}
  0, 2.1316282072803e-14, 0,              !- X,Y,Z Vertex 2 {m}
  13.9749843554382, 2.1316282072803e-14, 0, !- X,Y,Z Vertex 3 {m}
  13.9749843554382, 2.1316282072803e-14, 4; !- X,Y,Z Vertex 4 {m}

OS:Surface,
  {9dce2dd2-5cb7-469b-b01d-35e02f39b61c}, !- Handle
  Surface 11,                             !- Name
  Wall,                                   !- Surface Type
  ,                                       !- Construction Name
  {64684525-f4ea-47bd-8993-16af57028911}, !- Space Name
  Surface,                                !- Outside Boundary Condition
  {a7bed775-0696-436b-9bf8-76bab9c12916}, !- Outside Boundary Condition Object
  NoSun,                                  !- Sun Exposure
  NoWind,                                 !- Wind Exposure
  ,                                       !- View Factor to Ground
  ,                                       !- Number of Vertices
  -3, 3.00000000000002, 4,                !- X,Y,Z Vertex 1 {m}
  -3, 3.00000000000002, 0,                !- X,Y,Z Vertex 2 {m}
  0, 2.1316282072803e-14, 0,              !- X,Y,Z Vertex 3 {m}
  0, 2.1316282072803e-14, 4;              !- X,Y,Z Vertex 4 {m}

OS:Surface,
  {25082a69-2249-4ce1-97cd-e7419fb76a34}, !- Handle
  Surface 12,                             !- Name
  RoofCeiling,                            !- Surface Type
  ,                                       !- Construction Name
  {64684525-f4ea-47bd-8993-16af57028911}, !- Space Name
  Outdoors,                               !- Outside Boundary Condition
  ,                                       !- Outside Boundary Condition Object
  SunExposed,                             !- Sun Exposure
  WindExposed,                            !- Wind Exposure
  ,                                       !- View Factor to Ground
  ,                                       !- Number of Vertices
  0, 2.1316282072803e-14, 4,              !- X,Y,Z Vertex 1 {m}
  13.9749843554382, 2.1316282072803e-14, 4, !- X,Y,Z Vertex 2 {m}
  16.9749843554382, 3.00000000000002, 4,  !- X,Y,Z Vertex 3 {m}
  -3, 3.00000000000002, 4;                !- X,Y,Z Vertex 4 {m}

OS:Space,
  {62dc4ab8-18b3-43ae-a474-0f7225da8f94}, !- Handle
  Story 1 East Perimeter Space,           !- Name
  ,                                       !- Space Type Name
  ,                                       !- Default Construction Set Name
  ,                                       !- Default Schedule Set Name
  -0,                                     !- Direction of Relative North {deg}
  16.9749843554382,                       !- X Origin {m}
  3,                                      !- Y Origin {m}
  0,                                      !- Z Origin {m}
  {eafdd946-7876-4192-ac4b-63e18a8e5676}, !- Building Story Name
  {8fb1aea7-77bb-4bfa-96c1-3c8ae722355e}; !- Thermal Zone Name

OS:Surface,
  {23d6ace7-41b3-4cf4-9d97-3833c1ff4df2}, !- Handle
  Surface 13,                             !- Name
  Floor,                                  !- Surface Type
  ,                                       !- Construction Name
  {62dc4ab8-18b3-43ae-a474-0f7225da8f94}, !- Space Name
  Ground,                                 !- Outside Boundary Condition
  ,                                       !- Outside Boundary Condition Object
  NoSun,                                  !- Sun Exposure
  NoWind,                                 !- Wind Exposure
  ,                                       !- View Factor to Ground
  ,                                       !- Number of Vertices
  3.00000000000002, 16.9749843554382, 0,  !- X,Y,Z Vertex 1 {m}
  3.00000000000002, -3, 0,                !- X,Y,Z Vertex 2 {m}
  2.1316282072803e-14, 0, 0,              !- X,Y,Z Vertex 3 {m}
  2.1316282072803e-14, 13.9749843554382, 0; !- X,Y,Z Vertex 4 {m}

OS:Surface,
  {c6307fd2-17a1-42a4-a707-b3628020afff}, !- Handle
  Surface 14,                             !- Name
  Wall,                                   !- Surface Type
  ,                                       !- Construction Name
  {62dc4ab8-18b3-43ae-a474-0f7225da8f94}, !- Space Name
  Outdoors,                               !- Outside Boundary Condition
  ,                                       !- Outside Boundary Condition Object
  SunExposed,                             !- Sun Exposure
  WindExposed,                            !- Wind Exposure
  ,                                       !- View Factor to Ground
  ,                                       !- Number of Vertices
  3.00000000000002, -3, 4,                !- X,Y,Z Vertex 1 {m}
  3.00000000000002, -3, 0,                !- X,Y,Z Vertex 2 {m}
  3.00000000000002, 16.9749843554382, 0,  !- X,Y,Z Vertex 3 {m}
  3.00000000000002, 16.9749843554382, 4;  !- X,Y,Z Vertex 4 {m}

OS:Surface,
  {dcb332a8-8320-4f06-aa1f-df936e217953}, !- Handle
  Surface 15,                             !- Name
  Wall,                                   !- Surface Type
  ,                                       !- Construction Name
  {62dc4ab8-18b3-43ae-a474-0f7225da8f94}, !- Space Name
  Surface,                                !- Outside Boundary Condition
  {56589961-dc38-4881-bf58-3a3b13acd0d7}, !- Outside Boundary Condition Object
  NoSun,                                  !- Sun Exposure
  NoWind,                                 !- Wind Exposure
  ,                                       !- View Factor to Ground
  ,                                       !- Number of Vertices
  2.1316282072803e-14, 0, 4,              !- X,Y,Z Vertex 1 {m}
  2.1316282072803e-14, 0, 0,              !- X,Y,Z Vertex 2 {m}
  3.00000000000002, -3, 0,                !- X,Y,Z Vertex 3 {m}
  3.00000000000002, -3, 4;                !- X,Y,Z Vertex 4 {m}

OS:Surface,
  {0eec4f60-7744-4ff1-a97f-d4c3ec36cee0}, !- Handle
  Surface 16,                             !- Name
  Wall,                                   !- Surface Type
  ,                                       !- Construction Name
  {62dc4ab8-18b3-43ae-a474-0f7225da8f94}, !- Space Name
  Surface,                                !- Outside Boundary Condition
  {e584b036-fb41-40a1-8ba1-c25d3f226097}, !- Outside Boundary Condition Object
  NoSun,                                  !- Sun Exposure
  NoWind,                                 !- Wind Exposure
  ,                                       !- View Factor to Ground
  ,                                       !- Number of Vertices
  2.1316282072803e-14, 13.9749843554382, 4, !- X,Y,Z Vertex 1 {m}
  2.1316282072803e-14, 13.9749843554382, 0, !- X,Y,Z Vertex 2 {m}
  2.1316282072803e-14, 0, 0,              !- X,Y,Z Vertex 3 {m}
  2.1316282072803e-14, 0, 4;              !- X,Y,Z Vertex 4 {m}

OS:Surface,
  {de5c24cc-ecbe-4fe6-b1d0-e456943c3b54}, !- Handle
  Surface 17,                             !- Name
  Wall,                                   !- Surface Type
  ,                                       !- Construction Name
  {62dc4ab8-18b3-43ae-a474-0f7225da8f94}, !- Space Name
  Surface,                                !- Outside Boundary Condition
  {3e26a551-45f0-4b43-a388-143364b6c689}, !- Outside Boundary Condition Object
  NoSun,                                  !- Sun Exposure
  NoWind,                                 !- Wind Exposure
  ,                                       !- View Factor to Ground
  ,                                       !- Number of Vertices
  3.00000000000002, 16.9749843554382, 4,  !- X,Y,Z Vertex 1 {m}
  3.00000000000002, 16.9749843554382, 0,  !- X,Y,Z Vertex 2 {m}
  2.1316282072803e-14, 13.9749843554382, 0, !- X,Y,Z Vertex 3 {m}
  2.1316282072803e-14, 13.9749843554382, 4; !- X,Y,Z Vertex 4 {m}

OS:Surface,
  {6c67ab4a-970a-493d-a228-202741ce760c}, !- Handle
  Surface 18,                             !- Name
  RoofCeiling,                            !- Surface Type
  ,                                       !- Construction Name
  {62dc4ab8-18b3-43ae-a474-0f7225da8f94}, !- Space Name
  Outdoors,                               !- Outside Boundary Condition
  ,                                       !- Outside Boundary Condition Object
  SunExposed,                             !- Sun Exposure
  WindExposed,                            !- Wind Exposure
  ,                                       !- View Factor to Ground
  ,                                       !- Number of Vertices
  2.1316282072803e-14, 13.9749843554382, 4, !- X,Y,Z Vertex 1 {m}
  2.1316282072803e-14, 0, 4,              !- X,Y,Z Vertex 2 {m}
  3.00000000000002, -3, 4,                !- X,Y,Z Vertex 3 {m}
  3.00000000000002, 16.9749843554382, 4;  !- X,Y,Z Vertex 4 {m}

OS:Space,
  {ebc6de6e-f1a9-49ab-af0c-01fe4b55546b}, !- Handle
  Story 1 South Perimeter Space,          !- Name
  ,                                       !- Space Type Name
  ,                                       !- Default Construction Set Name
  ,                                       !- Default Schedule Set Name
  -0,                                     !- Direction of Relative North {deg}
  0,                                      !- X Origin {m}
  0,                                      !- Y Origin {m}
  0,                                      !- Z Origin {m}
  {eafdd946-7876-4192-ac4b-63e18a8e5676}, !- Building Story Name
  {d84dbc79-cd7c-46b8-877f-983c4fa953a6}; !- Thermal Zone Name

OS:Surface,
  {2f043249-81e4-425e-8489-70055f9191c5}, !- Handle
  Surface 19,                             !- Name
  Floor,                                  !- Surface Type
  ,                                       !- Construction Name
  {ebc6de6e-f1a9-49ab-af0c-01fe4b55546b}, !- Space Name
  Ground,                                 !- Outside Boundary Condition
  ,                                       !- Outside Boundary Condition Object
  NoSun,                                  !- Sun Exposure
  NoWind,                                 !- Wind Exposure
  ,                                       !- View Factor to Ground
  ,                                       !- Number of Vertices
  19.9749843554382, 0, 0,                 !- X,Y,Z Vertex 1 {m}
  0, 0, 0,                                !- X,Y,Z Vertex 2 {m}
  3, 3, 0,                                !- X,Y,Z Vertex 3 {m}
  16.9749843554382, 3, 0;                 !- X,Y,Z Vertex 4 {m}

OS:Surface,
  {d03b673d-dc78-476d-9f94-aeb4366d1a95}, !- Handle
  Surface 20,                             !- Name
  Wall,                                   !- Surface Type
  ,                                       !- Construction Name
  {ebc6de6e-f1a9-49ab-af0c-01fe4b55546b}, !- Space Name
  Outdoors,                               !- Outside Boundary Condition
  ,                                       !- Outside Boundary Condition Object
  SunExposed,                             !- Sun Exposure
  WindExposed,                            !- Wind Exposure
  ,                                       !- View Factor to Ground
  ,                                       !- Number of Vertices
  0, 0, 4,                                !- X,Y,Z Vertex 1 {m}
  0, 0, 0,                                !- X,Y,Z Vertex 2 {m}
  19.9749843554382, 0, 0,                 !- X,Y,Z Vertex 3 {m}
  19.9749843554382, 0, 4;                 !- X,Y,Z Vertex 4 {m}

OS:Surface,
  {fcd0be9b-318c-4864-a97f-22b98c7e0113}, !- Handle
  Surface 21,                             !- Name
  Wall,                                   !- Surface Type
  ,                                       !- Construction Name
  {ebc6de6e-f1a9-49ab-af0c-01fe4b55546b}, !- Space Name
  Surface,                                !- Outside Boundary Condition
  {5068f6d8-884d-4d9c-8304-585c89e8ba6f}, !- Outside Boundary Condition Object
  NoSun,                                  !- Sun Exposure
  NoWind,                                 !- Wind Exposure
  ,                                       !- View Factor to Ground
  ,                                       !- Number of Vertices
  3, 3, 4,                                !- X,Y,Z Vertex 1 {m}
  3, 3, 0,                                !- X,Y,Z Vertex 2 {m}
  0, 0, 0,                                !- X,Y,Z Vertex 3 {m}
  0, 0, 4;                                !- X,Y,Z Vertex 4 {m}

OS:Surface,
  {59df628f-721e-4a19-8671-5c6622694393}, !- Handle
  Surface 22,                             !- Name
  Wall,                                   !- Surface Type
  ,                                       !- Construction Name
  {ebc6de6e-f1a9-49ab-af0c-01fe4b55546b}, !- Space Name
  Surface,                                !- Outside Boundary Condition
  {6f5986e8-0fcd-45b7-813c-1af2cb04548d}, !- Outside Boundary Condition Object
  NoSun,                                  !- Sun Exposure
  NoWind,                                 !- Wind Exposure
  ,                                       !- View Factor to Ground
  ,                                       !- Number of Vertices
  16.9749843554382, 3, 4,                 !- X,Y,Z Vertex 1 {m}
  16.9749843554382, 3, 0,                 !- X,Y,Z Vertex 2 {m}
  3, 3, 0,                                !- X,Y,Z Vertex 3 {m}
  3, 3, 4;                                !- X,Y,Z Vertex 4 {m}

OS:Surface,
  {56589961-dc38-4881-bf58-3a3b13acd0d7}, !- Handle
  Surface 23,                             !- Name
  Wall,                                   !- Surface Type
  ,                                       !- Construction Name
  {ebc6de6e-f1a9-49ab-af0c-01fe4b55546b}, !- Space Name
  Surface,                                !- Outside Boundary Condition
  {dcb332a8-8320-4f06-aa1f-df936e217953}, !- Outside Boundary Condition Object
  NoSun,                                  !- Sun Exposure
  NoWind,                                 !- Wind Exposure
  ,                                       !- View Factor to Ground
  ,                                       !- Number of Vertices
  19.9749843554382, 0, 4,                 !- X,Y,Z Vertex 1 {m}
  19.9749843554382, 0, 0,                 !- X,Y,Z Vertex 2 {m}
  16.9749843554382, 3, 0,                 !- X,Y,Z Vertex 3 {m}
  16.9749843554382, 3, 4;                 !- X,Y,Z Vertex 4 {m}

OS:Surface,
  {d36c4d50-ccb2-46ac-a89c-0cb683cfef8b}, !- Handle
  Surface 24,                             !- Name
  RoofCeiling,                            !- Surface Type
  ,                                       !- Construction Name
  {ebc6de6e-f1a9-49ab-af0c-01fe4b55546b}, !- Space Name
  Outdoors,                               !- Outside Boundary Condition
  ,                                       !- Outside Boundary Condition Object
  SunExposed,                             !- Sun Exposure
  WindExposed,                            !- Wind Exposure
  ,                                       !- View Factor to Ground
  ,                                       !- Number of Vertices
  16.9749843554382, 3, 4,                 !- X,Y,Z Vertex 1 {m}
  3, 3, 4,                                !- X,Y,Z Vertex 2 {m}
  0, 0, 4,                                !- X,Y,Z Vertex 3 {m}
  19.9749843554382, 0, 4;                 !- X,Y,Z Vertex 4 {m}

OS:Space,
  {e30d768e-6a61-429a-a2bc-f2f0eaabb45b}, !- Handle
  Story 1 Core Space,                     !- Name
  ,                                       !- Space Type Name
  ,                                       !- Default Construction Set Name
  ,                                       !- Default Schedule Set Name
  -0,                                     !- Direction of Relative North {deg}
  3,                                      !- X Origin {m}
  3,                                      !- Y Origin {m}
  0,                                      !- Z Origin {m}
  {eafdd946-7876-4192-ac4b-63e18a8e5676}, !- Building Story Name
  {aa92d494-0a44-47b0-ab73-6212a19eb4c2}; !- Thermal Zone Name

OS:Surface,
  {a50ebf38-51c8-4483-89ec-96ae7dc7d6e7}, !- Handle
  Surface 25,                             !- Name
  Floor,                                  !- Surface Type
  ,                                       !- Construction Name
  {e30d768e-6a61-429a-a2bc-f2f0eaabb45b}, !- Space Name
  Ground,                                 !- Outside Boundary Condition
  ,                                       !- Outside Boundary Condition Object
  NoSun,                                  !- Sun Exposure
  NoWind,                                 !- Wind Exposure
  ,                                       !- View Factor to Ground
  ,                                       !- Number of Vertices
  0, 0, 0,                                !- X,Y,Z Vertex 1 {m}
  0, 13.9749843554382, 0,                 !- X,Y,Z Vertex 2 {m}
  13.9749843554382, 13.9749843554382, 0,  !- X,Y,Z Vertex 3 {m}
  13.9749843554382, 0, 0;                 !- X,Y,Z Vertex 4 {m}

OS:Surface,
  {73755e59-35bb-4c2b-b224-1f271b64033d}, !- Handle
  Surface 26,                             !- Name
  Wall,                                   !- Surface Type
  ,                                       !- Construction Name
  {e30d768e-6a61-429a-a2bc-f2f0eaabb45b}, !- Space Name
  Surface,                                !- Outside Boundary Condition
  {c79d95ec-dcfa-4e7b-980a-02e28d64b8f9}, !- Outside Boundary Condition Object
  NoSun,                                  !- Sun Exposure
  NoWind,                                 !- Wind Exposure
  ,                                       !- View Factor to Ground
  ,                                       !- Number of Vertices
  0, 13.9749843554382, 4,                 !- X,Y,Z Vertex 1 {m}
  0, 13.9749843554382, 0,                 !- X,Y,Z Vertex 2 {m}
  0, 0, 0,                                !- X,Y,Z Vertex 3 {m}
  0, 0, 4;                                !- X,Y,Z Vertex 4 {m}

OS:Surface,
  {87e0aa75-a4e3-45d1-bf7d-e0a2ee4c18fb}, !- Handle
  Surface 27,                             !- Name
  Wall,                                   !- Surface Type
  ,                                       !- Construction Name
  {e30d768e-6a61-429a-a2bc-f2f0eaabb45b}, !- Space Name
  Surface,                                !- Outside Boundary Condition
  {5d1e5c6c-5148-408e-bf3c-0dfa3f56f05a}, !- Outside Boundary Condition Object
  NoSun,                                  !- Sun Exposure
  NoWind,                                 !- Wind Exposure
  ,                                       !- View Factor to Ground
  ,                                       !- Number of Vertices
  13.9749843554382, 13.9749843554382, 4,  !- X,Y,Z Vertex 1 {m}
  13.9749843554382, 13.9749843554382, 0,  !- X,Y,Z Vertex 2 {m}
  0, 13.9749843554382, 0,                 !- X,Y,Z Vertex 3 {m}
  0, 13.9749843554382, 4;                 !- X,Y,Z Vertex 4 {m}

OS:Surface,
  {e584b036-fb41-40a1-8ba1-c25d3f226097}, !- Handle
  Surface 28,                             !- Name
  Wall,                                   !- Surface Type
  ,                                       !- Construction Name