
OS:Version,
  {3ae74753-5b19-49f8-8bca-9e95b4ff397c}, !- Handle
  0.10.0;                                 !- Version Identifier

OS:BuildingStory,
  {58d64825-5816-49b5-a425-dc79d753435e}, !- Handle
  Story 1,                                !- Name
  0,                                      !- Nominal Z Coordinate {m}
  4,                                      !- Nominal Floor to Floor Height {m}
  ,                                       !- Default Construction Set Name
  ,                                       !- Default Schedule Set Name
  ;                                       !- Group Rendering Name

OS:Space,
  {63815595-4626-4a61-b045-2817d7c1d85c}, !- Handle
  Story 1 West Perimeter Space,           !- Name
  ,                                       !- Space Type Name
  ,                                       !- Default Construction Set Name
  ,                                       !- Default Schedule Set Name
  -0,                                     !- Direction of Relative North {deg}
  0,                                      !- X Origin {m}
  0,                                      !- Y Origin {m}
  0,                                      !- Z Origin {m}
  {58d64825-5816-49b5-a425-dc79d753435e}, !- Building Story Name
  {0d4e7759-2a27-4f72-ba80-c48d73a57346}; !- Thermal Zone Name

OS:Surface,
  {12cbe423-b07d-4d48-8720-11dcee4e8c48}, !- Handle
  Surface 1,                              !- Name
  Floor,                                  !- Surface Type
  ,                                       !- Construction Name
  {63815595-4626-4a61-b045-2817d7c1d85c}, !- Space Name
  Ground,                                 !- Outside Boundary Condition
  ,                                       !- Outside Boundary Condition Object
  NoSun,                                  !- Sun Exposure
  NoWind,                                 !- Wind Exposure
  ,                                       !- View Factor to Ground
  ,                                       !- Number of Vertices
  0, 0, 0,                                !- X,Y,Z Vertex 1 {m}
  0, 17.2916164657906, 0,                 !- X,Y,Z Vertex 2 {m}
  3, 14.2916164657906, 0,                 !- X,Y,Z Vertex 3 {m}
  3, 3, 0;                                !- X,Y,Z Vertex 4 {m}

OS:Surface,
  {83c457d8-243d-43ec-8c66-911fd5912007}, !- Handle
  Surface 2,                              !- Name
  Wall,                                   !- Surface Type
  ,                                       !- Construction Name
  {63815595-4626-4a61-b045-2817d7c1d85c}, !- Space Name
  Outdoors,                               !- Outside Boundary Condition
  ,                                       !- Outside Boundary Condition Object
  SunExposed,                             !- Sun Exposure
  WindExposed,                            !- Wind Exposure
  ,                                       !- View Factor to Ground
  ,                                       !- Number of Vertices
  0, 17.2916164657906, 4,                 !- X,Y,Z Vertex 1 {m}
  0, 17.2916164657906, 0,                 !- X,Y,Z Vertex 2 {m}
  0, 0, 0,                                !- X,Y,Z Vertex 3 {m}
  0, 0, 4;                                !- X,Y,Z Vertex 4 {m}

OS:Surface,
  {648bbad7-9711-4b90-b1ac-c5c788851240}, !- Handle
  Surface 3,                              !- Name
  Wall,                                   !- Surface Type
  ,                                       !- Construction Name
  {63815595-4626-4a61-b045-2817d7c1d85c}, !- Space Name
  Surface,                                !- Outside Boundary Condition
  {f10a3f81-7bf0-44ca-bd69-9a8de9e3bc60}, !- Outside Boundary Condition Object
  NoSun,                                  !- Sun Exposure
  NoWind,                                 !- Wind Exposure
  ,                                       !- View Factor to Ground
  ,                                       !- Number of Vertices
  3, 14.2916164657906, 4,                 !- X,Y,Z Vertex 1 {m}
  3, 14.2916164657906, 0,                 !- X,Y,Z Vertex 2 {m}
  0, 17.2916164657906, 0,                 !- X,Y,Z Vertex 3 {m}
  0, 17.2916164657906, 4;                 !- X,Y,Z Vertex 4 {m}

OS:Surface,
  {cc4bc406-a60d-44ab-b320-328348e5dcb8}, !- Handle
  Surface 4,                              !- Name
  Wall,                                   !- Surface Type
  ,                                       !- Construction Name
  {63815595-4626-4a61-b045-2817d7c1d85c}, !- Space Name
  Surface,                                !- Outside Boundary Condition
  {10b6eaad-a418-4c30-a552-fe56816dbb0b}, !- Outside Boundary Condition Object
  NoSun,                                  !- Sun Exposure
  NoWind,                                 !- Wind Exposure
  ,                                       !- View Factor to Ground
  ,                                       !- Number of Vertices
  3, 3, 4,                                !- X,Y,Z Vertex 1 {m}
  3, 3, 0,                                !- X,Y,Z Vertex 2 {m}
  3, 14.2916164657906, 0,                 !- X,Y,Z Vertex 3 {m}
  3, 14.2916164657906, 4;                 !- X,Y,Z Vertex 4 {m}

OS:Surface,
  {b30bbb6b-a42c-41b4-bcbb-aedaf9eceb27}, !- Handle
  Surface 5,                              !- Name
  Wall,                                   !- Surface Type
  ,                                       !- Construction Name
  {63815595-4626-4a61-b045-2817d7c1d85c}, !- Space Name
  Surface,                                !- Outside Boundary Condition
  {0ca53f38-9322-456c-bda0-5d7dd78de5ae}, !- Outside Boundary Condition Object
  NoSun,                                  !- Sun Exposure
  NoWind,                                 !- Wind Exposure
  ,                                       !- View Factor to Ground
  ,                                       !- Number of Vertices
  0, 0, 4,                                !- X,Y,Z Vertex 1 {m}
  0, 0, 0,                                !- X,Y,Z Vertex 2 {m}
  3, 3, 0,                                !- X,Y,Z Vertex 3 {m}
  3, 3, 4;                                !- X,Y,Z Vertex 4 {m}

OS:Surface,
  {2b5bfabf-a396-403a-b4cd-4fdcf4872fd4}, !- Handle
  Surface 6,                              !- Name
  RoofCeiling,                            !- Surface Type
  ,                                       !- Construction Name
  {63815595-4626-4a61-b045-2817d7c1d85c}, !- Space Name
  Outdoors,                               !- Outside Boundary Condition
  ,                                       !- Outside Boundary Condition Object
  SunExposed,                             !- Sun Exposure
  WindExposed,                            !- Wind Exposure
  ,                                       !- View Factor to Ground
  ,                                       !- Number of Vertices
  3, 3, 4,                                !- X,Y,Z Vertex 1 {m}
  3, 14.2916164657906, 4,                 !- X,Y,Z Vertex 2 {m}
  0, 17.2916164657906, 4,                 !- X,Y,Z Vertex 3 {m}
  0, 0, 4;                                !- X,Y,Z Vertex 4 {m}

OS:Space,
  {bb635730-f821-4cf2-9b01-71fdfbfc9d1a}, !- Handle
  Story 1 North Perimeter Space,          !- Name
  ,                                       !- Space Type Name
  ,                                       !- Default Construction Set Name
  ,                                       !- Default Schedule Set Name
  -0,                                     !- Direction of Relative North {deg}
  3,                                      !- X Origin {m}
  14.2916164657906,                       !- Y Origin {m}
  0,                                      !- Z Origin {m}
  {58d64825-5816-49b5-a425-dc79d753435e}, !- Building Story Name
  {7246fbd6-7816-415f-91db-af3cc5e80afc}; !- Thermal Zone Name

OS:Surface,
  {01e1880c-7026-4bd1-bbf7-ceb5c2cd4589}, !- Handle
  Surface 7,                              !- Name
  Floor,                                  !- Surface Type
  ,                                       !- Construction Name
  {bb635730-f821-4cf2-9b01-71fdfbfc9d1a}, !- Space Name
  Ground,                                 !- Outside Boundary Condition
  ,                                       !- Outside Boundary Condition Object
  NoSun,                                  !- Sun Exposure
  NoWind,                                 !- Wind Exposure
  ,                                       !- View Factor to Ground
  ,                                       !- Number of Vertices
  -3, 3.00000000000002, 0,                !- X,Y,Z Vertex 1 {m}
  14.2916164657906, 3.00000000000002, 0,  !- X,Y,Z Vertex 2 {m}
  11.2916164657906, 1.77635683940025e-14, 0, !- X,Y,Z Vertex 3 {m}
  0, 1.77635683940025e-14, 0;             !- X,Y,Z Vertex 4 {m}

OS:Surface,
  {6098e76b-1a7c-403e-b14d-9b5ced4b5123}, !- Handle
  Surface 8,                              !- Name
  Wall,                                   !- Surface Type
  ,                                       !- Construction Name
  {bb635730-f821-4cf2-9b01-71fdfbfc9d1a}, !- Space Name
  Outdoors,                               !- Outside Boundary Condition
  ,                                       !- Outside Boundary Condition Object
  SunExposed,                             !- Sun Exposure
  WindExposed,                            !- Wind Exposure
  ,                                       !- View Factor to Ground
  ,                                       !- Number of Vertices
  14.2916164657906, 3.00000000000002, 4,  !- X,Y,Z Vertex 1 {m}
  14.2916164657906, 3.00000000000002, 0,  !- X,Y,Z Vertex 2 {m}
  -3, 3.00000000000002, 0,                !- X,Y,Z Vertex 3 {m}
  -3, 3.00000000000002, 4;                !- X,Y,Z Vertex 4 {m}

OS:Surface,
  {c4b10220-209f-415d-88d2-1ebd5fb58c0c}, !- Handle
  Surface 9,                              !- Name
  Wall,                                   !- Surface Type
  ,                                       !- Construction Name
  {bb635730-f821-4cf2-9b01-71fdfbfc9d1a}, !- Space Name
  Surface,                                !- Outside Boundary Condition
  {e8aa1e9c-d1fd-4c6f-9273-bf1603e214c1}, !- Outside Boundary Condition Object
  NoSun,                                  !- Sun Exposure
  NoWind,                                 !- Wind Exposure
  ,                                       !- View Factor to Ground
  ,                                       !- Number of Vertices
  11.2916164657906, 1.77635683940025e-14, 4, !- X,Y,Z Vertex 1 {m}
  11.2916164657906, 1.77635683940025e-14, 0, !- X,Y,Z Vertex 2 {m}
  14.2916164657906, 3.00000000000002, 0,  !- X,Y,Z Vertex 3 {m}
  14.2916164657906, 3.00000000000002, 4;  !- X,Y,Z Vertex 4 {m}

OS:Surface,
  {3406c034-85e4-481e-bb1c-892a53b926e9}, !- Handle
  Surface 10,                             !- Name
  Wall,                                   !- Surface Type
  ,                                       !- Construction Name
  {bb635730-f821-4cf2-9b01-71fdfbfc9d1a}, !- Space Name
  Surface,                                !- Outside Boundary Condition
  {f12433bf-88e2-4cab-a635-dcc6d09c09db}, !- Outside Boundary Condition Object
  NoSun,                                  !- Sun Exposure
  NoWind,                                 !- Wind Exposure
  ,                                       !- View Factor to Ground
  ,                                       !- Number of Vertices
  0, 1.77635683940025e-14, 4,             !- X,Y,Z Vertex 1 {m}
  0, 1.77635683940025e-14, 0,             !- X,Y,Z Vertex 2 {m}
  11.2916164657906, 1.77635683940025e-14, 0, !- X,Y,Z Vertex 3 {m}
  11.2916164657906, 1.77635683940025e-14, 4; !- X,Y,Z Vertex 4 {m}

OS:Surface,
  {f10a3f81-7bf0-44ca-bd69-9a8de9e3bc60}, !- Handle
  Surface 11,                             !- Name
  Wall,                                   !- Surface Type
  ,                                       !- Construction Name
  {bb635730-f821-4cf2-9b01-71fdfbfc9d1a}, !- Space Name
  Surface,                                !- Outside Boundary Condition
  {648bbad7-9711-4b90-b1ac-c5c788851240}, !- Outside Boundary Condition Object
  NoSun,                                  !- Sun Exposure
  NoWind,                                 !- Wind Exposure
  ,                                       !- View Factor to Ground
  ,                                       !- Number of Vertices
  -3, 3.00000000000002, 4,                !- X,Y,Z Vertex 1 {m}
  -3, 3.00000000000002, 0,                !- X,Y,Z Vertex 2 {m}
  0, 1.77635683940025e-14, 0,             !- X,Y,Z Vertex 3 {m}
  0, 1.77635683940025e-14, 4;             !- X,Y,Z Vertex 4 {m}

OS:Surface,
  {9bd7198e-3979-4b82-adb9-b7f3c082775a}, !- Handle
  Surface 12,                             !- Name
  RoofCeiling,                            !- Surface Type
  ,                                       !- Construction Name
  {bb635730-f821-4cf2-9b01-71fdfbfc9d1a}, !- Space Name
  Outdoors,                               !- Outside Boundary Condition
  ,                                       !- Outside Boundary Condition Object
  SunExposed,                             !- Sun Exposure
  WindExposed,                            !- Wind Exposure
  ,                                       !- View Factor to Ground
  ,                                       !- Number of Vertices
  0, 1.77635683940025e-14, 4,             !- X,Y,Z Vertex 1 {m}
  11.2916164657906, 1.77635683940025e-14, 4, !- X,Y,Z Vertex 2 {m}
  14.2916164657906, 3.00000000000002, 4,  !- X,Y,Z Vertex 3 {m}
  -3, 3.00000000000002, 4;                !- X,Y,Z Vertex 4 {m}

OS:Space,
  {c4d8a207-8914-4fb4-bf2e-489fd49f3fd3}, !- Handle
  Story 1 East Perimeter Space,           !- Name
  ,                                       !- Space Type Name
  ,                                       !- Default Construction Set Name
  ,                                       !- Default Schedule Set Name
  -0,                                     !- Direction of Relative North {deg}
  14.2916164657906,                       !- X Origin {m}
  3,                                      !- Y Origin {m}
  0,                                      !- Z Origin {m}
  {58d64825-5816-49b5-a425-dc79d753435e}, !- Building Story Name
  {48681200-9166-42da-bf82-b92985e109f2}; !- Thermal Zone Name

OS:Surface,
  {57058aab-7760-4342-8456-9242a8e19647}, !- Handle
  Surface 13,                             !- Name
  Floor,                                  !- Surface Type
  ,                                       !- Construction Name
  {c4d8a207-8914-4fb4-bf2e-489fd49f3fd3}, !- Space Name
  Ground,                                 !- Outside Boundary Condition
  ,                                       !- Outside Boundary Condition Object
  NoSun,                                  !- Sun Exposure
  NoWind,                                 !- Wind Exposure
  ,                                       !- View Factor to Ground
  ,                                       !- Number of Vertices
  3.00000000000002, 14.2916164657906, 0,  !- X,Y,Z Vertex 1 {m}
  3.00000000000002, -3, 0,                !- X,Y,Z Vertex 2 {m}
  1.77635683940025e-14, 0, 0,             !- X,Y,Z Vertex 3 {m}
  1.77635683940025e-14, 11.2916164657906, 0; !- X,Y,Z Vertex 4 {m}

OS:Surface,
  {2217b59a-ad08-46f1-ae11-21df33e0e582}, !- Handle
  Surface 14,                             !- Name
  Wall,                                   !- Surface Type
  ,                                       !- Construction Name
  {c4d8a207-8914-4fb4-bf2e-489fd49f3fd3}, !- Space Name
  Outdoors,                               !- Outside Boundary Condition
  ,                                       !- Outside Boundary Condition Object
  SunExposed,                             !- Sun Exposure
  WindExposed,                            !- Wind Exposure
  ,                                       !- View Factor to Ground
  ,                                       !- Number of Vertices
  3.00000000000002, -3, 4,                !- X,Y,Z Vertex 1 {m}
  3.00000000000002, -3, 0,                !- X,Y,Z Vertex 2 {m}
  3.00000000000002, 14.2916164657906, 0,  !- X,Y,Z Vertex 3 {m}
  3.00000000000002, 14.2916164657906, 4;  !- X,Y,Z Vertex 4 {m}

OS:Surface,
  {53549cf7-9fd6-446f-84e2-00b7fb9fb2b5}, !- Handle
  Surface 15,                             !- Name
  Wall,                                   !- Surface Type
  ,                                       !- Construction Name
  {c4d8a207-8914-4fb4-bf2e-489fd49f3fd3}, !- Space Name
  Surface,                                !- Outside Boundary Condition
  {48060711-f263-4b66-9c4c-f048ea8b55fb}, !- Outside Boundary Condition Object
  NoSun,                                  !- Sun Exposure
  NoWind,                                 !- Wind Exposure
  ,                                       !- View Factor to Ground
  ,                                       !- Number of Vertices
  1.77635683940025e-14, 0, 4,             !- X,Y,Z Vertex 1 {m}
  1.77635683940025e-14, 0, 0,             !- X,Y,Z Vertex 2 {m}
  3.00000000000002, -3, 0,                !- X,Y,Z Vertex 3 {m}
  3.00000000000002, -3, 4;                !- X,Y,Z Vertex 4 {m}

OS:Surface,
  {563410af-1fcf-4382-acf6-eb8d1151b39b}, !- Handle
  Surface 16,                             !- Name
  Wall,                                   !- Surface Type
  ,                                       !- Construction Name
  {c4d8a207-8914-4fb4-bf2e-489fd49f3fd3}, !- Space Name
  Surface,                                !- Outside Boundary Condition
  {43b50eef-fcdb-4c5e-80b8-4859f7077130}, !- Outside Boundary Condition Object
  NoSun,                                  !- Sun Exposure
  NoWind,                                 !- Wind Exposure
  ,                                       !- View Factor to Ground
  ,                                       !- Number of Vertices
  1.77635683940025e-14, 11.2916164657906, 4, !- X,Y,Z Vertex 1 {m}
  1.77635683940025e-14, 11.2916164657906, 0, !- X,Y,Z Vertex 2 {m}
  1.77635683940025e-14, 0, 0,             !- X,Y,Z Vertex 3 {m}
  1.77635683940025e-14, 0, 4;             !- X,Y,Z Vertex 4 {m}

OS:Surface,
  {e8aa1e9c-d1fd-4c6f-9273-bf1603e214c1}, !- Handle
  Surface 17,                             !- Name
  Wall,                                   !- Surface Type
  ,                                       !- Construction Name
  {c4d8a207-8914-4fb4-bf2e-489fd49f3fd3}, !- Space Name
  Surface,                                !- Outside Boundary Condition
  {c4b10220-209f-415d-88d2-1ebd5fb58c0c}, !- Outside Boundary Condition Object
  NoSun,                                  !- Sun Exposure
  NoWind,                                 !- Wind Exposure
  ,                                       !- View Factor to Ground
  ,                                       !- Number of Vertices
  3.00000000000002, 14.2916164657906, 4,  !- X,Y,Z Vertex 1 {m}
  3.00000000000002, 14.2916164657906, 0,  !- X,Y,Z Vertex 2 {m}
  1.77635683940025e-14, 11.2916164657906, 0, !- X,Y,Z Vertex 3 {m}
  1.77635683940025e-14, 11.2916164657906, 4; !- X,Y,Z Vertex 4 {m}

OS:Surface,
  {a582022c-2fe1-43d5-a968-ab7df174132b}, !- Handle
  Surface 18,                             !- Name
  RoofCeiling,                            !- Surface Type
  ,                                       !- Construction Name
  {c4d8a207-8914-4fb4-bf2e-489fd49f3fd3}, !- Space Name
  Outdoors,                               !- Outside Boundary Condition
  ,                                       !- Outside Boundary Condition Object
  SunExposed,                             !- Sun Exposure
  WindExposed,                            !- Wind Exposure
  ,                                       !- View Factor to Ground
  ,                                       !- Number of Vertices
  1.77635683940025e-14, 11.2916164657906, 4, !- X,Y,Z Vertex 1 {m}
  1.77635683940025e-14, 0, 4,             !- X,Y,Z Vertex 2 {m}
  3.00000000000002, -3, 4,                !- X,Y,Z Vertex 3 {m}
  3.00000000000002, 14.2916164657906, 4;  !- X,Y,Z Vertex 4 {m}

OS:Space,
  {f3461b98-9a9a-42fc-b034-b52b05124a1c}, !- Handle
  Story 1 South Perimeter Space,          !- Name
  ,                                       !- Space Type Name
  ,                                       !- Default Construction Set Name
  ,                                       !- Default Schedule Set Name
  -0,                                     !- Direction of Relative North {deg}
  0,                                      !- X Origin {m}
  0,                                      !- Y Origin {m}
  0,                                      !- Z Origin {m}
  {58d64825-5816-49b5-a425-dc79d753435e}, !- Building Story Name
  {474b2ccc-c2fa-4364-9200-4fb4500a2033}; !- Thermal Zone Name

OS:Surface,
  {1b25eb54-2af3-40f9-8937-3bd74f69446c}, !- Handle
  Surface 19,                             !- Name
  Floor,                                  !- Surface Type
  ,                                       !- Construction Name
  {f3461b98-9a9a-42fc-b034-b52b05124a1c}, !- Space Name
  Ground,                                 !- Outside Boundary Condition
  ,                                       !- Outside Boundary Condition Object
  NoSun,                                  !- Sun Exposure
  NoWind,                                 !- Wind Exposure
  ,                                       !- View Factor to Ground
  ,                                       !- Number of Vertices
  17.2916164657906, 0, 0,                 !- X,Y,Z Vertex 1 {m}
  0, 0, 0,                                !- X,Y,Z Vertex 2 {m}
  3, 3, 0,                                !- X,Y,Z Vertex 3 {m}
  14.2916164657906, 3, 0;                 !- X,Y,Z Vertex 4 {m}

OS:Surface,
  {90c43359-844e-4692-86e0-2ceb21adcb9f}, !- Handle
  Surface 20,                             !- Name
  Wall,                                   !- Surface Type
  ,                                       !- Construction Name
  {f3461b98-9a9a-42fc-b034-b52b05124a1c}, !- Space Name
  Outdoors,                               !- Outside Boundary Condition
  ,                                       !- Outside Boundary Condition Object
  SunExposed,                             !- Sun Exposure
  WindExposed,                            !- Wind Exposure
  ,                                       !- View Factor to Ground
  ,                                       !- Number of Vertices
  0, 0, 4,                                !- X,Y,Z Vertex 1 {m}
  0, 0, 0,                                !- X,Y,Z Vertex 2 {m}
  17.2916164657906, 0, 0,                 !- X,Y,Z Vertex 3 {m}
  17.2916164657906, 0, 4;                 !- X,Y,Z Vertex 4 {m}

OS:Surface,
  {0ca53f38-9322-456c-bda0-5d7dd78de5ae}, !- Handle
  Surface 21,                             !- Name
  Wall,                                   !- Surface Type
  ,                                       !- Construction Name
  {f3461b98-9a9a-42fc-b034-b52b05124a1c}, !- Space Name
  Surface,                                !- Outside Boundary Condition
  {b30bbb6b-a42c-41b4-bcbb-aedaf9eceb27}, !- Outside Boundary Condition Object
  NoSun,                                  !- Sun Exposure
  NoWind,                                 !- Wind Exposure
  ,                                       !- View Factor to Ground
  ,                                       !- Number of Vertices
  3, 3, 4,                                !- X,Y,Z Vertex 1 {m}
  3, 3, 0,                                !- X,Y,Z Vertex 2 {m}
  0, 0, 0,                                !- X,Y,Z Vertex 3 {m}
  0, 0, 4;                                !- X,Y,Z Vertex 4 {m}

OS:Surface,
  {c1a682e5-707a-4a16-ba2d-498d75e84fba}, !- Handle
  Surface 22,                             !- Name
  Wall,                                   !- Surface Type
  ,                                       !- Construction Name
  {f3461b98-9a9a-42fc-b034-b52b05124a1c}, !- Space Name
  Surface,                                !- Outside Boundary Condition
  {0ac6ca93-4ebd-488d-83e3-af81c0bcaab6}, !- Outside Boundary Condition Object
  NoSun,                                  !- Sun Exposure
  NoWind,                                 !- Wind Exposure
  ,                                       !- View Factor to Ground
  ,                                       !- Number of Vertices
  14.2916164657906, 3, 4,                 !- X,Y,Z Vertex 1 {m}
  14.2916164657906, 3, 0,                 !- X,Y,Z Vertex 2 {m}
  3, 3, 0,                                !- X,Y,Z Vertex 3 {m}
  3, 3, 4;                                !- X,Y,Z Vertex 4 {m}

OS:Surface,
  {48060711-f263-4b66-9c4c-f048ea8b55fb}, !- Handle
  Surface 23,                             !- Name
  Wall,                                   !- Surface Type
  ,                                       !- Construction Name
  {f3461b98-9a9a-42fc-b034-b52b05124a1c}, !- Space Name
  Surface,                                !- Outside Boundary Condition
  {53549cf7-9fd6-446f-84e2-00b7fb9fb2b5}, !- Outside Boundary Condition Object
  NoSun,                                  !- Sun Exposure
  NoWind,                                 !- Wind Exposure
  ,                                       !- View Factor to Ground
  ,                                       !- Number of Vertices
  17.2916164657906, 0, 4,                 !- X,Y,Z Vertex 1 {m}
  17.2916164657906, 0, 0,                 !- X,Y,Z Vertex 2 {m}
  14.2916164657906, 3, 0,                 !- X,Y,Z Vertex 3 {m}
  14.2916164657906, 3, 4;                 !- X,Y,Z Vertex 4 {m}

OS:Surface,
  {d5ac9ee0-08c7-460f-b17e-c72bf861ca93}, !- Handle
  Surface 24,                             !- Name
  RoofCeiling,                            !- Surface Type
  ,                                       !- Construction Name
  {f3461b98-9a9a-42fc-b034-b52b05124a1c}, !- Space Name
  Outdoors,                               !- Outside Boundary Condition
  ,                                       !- Outside Boundary Condition Object
  SunExposed,                             !- Sun Exposure
  WindExposed,                            !- Wind Exposure
  ,                                       !- View Factor to Ground
  ,                                       !- Number of Vertices
  14.2916164657906, 3, 4,                 !- X,Y,Z Vertex 1 {m}
  3, 3, 4,                                !- X,Y,Z Vertex 2 {m}
  0, 0, 4,                                !- X,Y,Z Vertex 3 {m}
  17.2916164657906, 0, 4;                 !- X,Y,Z Vertex 4 {m}

OS:Space,
  {5cea6879-9838-4a7d-a004-003d1a06814d}, !- Handle
  Story 1 Core Space,                     !- Name
  ,                                       !- Space Type Name
  ,                                       !- Default Construction Set Name
  ,                                       !- Default Schedule Set Name
  -0,                                     !- Direction of Relative North {deg}
  3,                                      !- X Origin {m}
  3,                                      !- Y Origin {m}
  0,                                      !- Z Origin {m}
  {58d64825-5816-49b5-a425-dc79d753435e}, !- Building Story Name
  {05abea92-f6d6-47bc-81e2-2324cfc6c075}; !- Thermal Zone Name

OS:Surface,
  {5a73aa89-83da-4171-9750-265f7fc2f6cb}, !- Handle
  Surface 25,                             !- Name
  Floor,                                  !- Surface Type
  ,                                       !- Construction Name
  {5cea6879-9838-4a7d-a004-003d1a06814d}, !- Space Name
  Ground,                                 !- Outside Boundary Condition
  ,                                       !- Outside Boundary Condition Object
  NoSun,                                  !- Sun Exposure
  NoWind,                                 !- Wind Exposure
  ,                                       !- View Factor to Ground
  ,                                       !- Number of Vertices
  0, 0, 0,                                !- X,Y,Z Vertex 1 {m}
  0, 11.2916164657906, 0,                 !- X,Y,Z Vertex 2 {m}
  11.2916164657906, 11.2916164657906, 0,  !- X,Y,Z Vertex 3 {m}
  11.2916164657906, 0, 0;                 !- X,Y,Z Vertex 4 {m}

OS:Surface,
  {10b6eaad-a418-4c30-a552-fe56816dbb0b}, !- Handle
  Surface 26,                             !- Name
  Wall,                                   !- Surface Type
  ,                                       !- Construction Name
  {5cea6879-9838-4a7d-a004-003d1a06814d}, !- Space Name
  Surface,                                !- Outside Boundary Condition
  {cc4bc406-a60d-44ab-b320-328348e5dcb8}, !- Outside Boundary Condition Object
  NoSun,                                  !- Sun Exposure
  NoWind,                                 !- Wind Exposure
  ,                                       !- View Factor to Ground
  ,                                       !- Number of Vertices
  0, 11.2916164657906, 4,                 !- X,Y,Z Vertex 1 {m}
  0, 11.2916164657906, 0,                 !- X,Y,Z Vertex 2 {m}
  0, 0, 0,                                !- X,Y,Z Vertex 3 {m}
  0, 0, 4;                                !- X,Y,Z Vertex 4 {m}

OS:Surface,
  {f12433bf-88e2-4cab-a635-dcc6d09c09db}, !- Handle
  Surface 27,                             !- Name
  Wall,                                   !- Surface Type
  ,                                       !- Construction Name
  {5cea6879-9838-4a7d-a004-003d1a06814d}, !- Space Name
  Surface,                                !- Outside Boundary Condition
  {3406c034-85e4-481e-bb1c-892a53b926e9}, !- Outside Boundary Condition Object
  NoSun,                                  !- Sun Exposure
  NoWind,                                 !- Wind Exposure
  ,                                       !- View Factor to Ground
  ,                                       !- Number of Vertices
  11.2916164657906, 11.2916164657906, 4,  !- X,Y,Z Vertex 1 {m}
  11.2916164657906, 11.2916164657906, 0,  !- X,Y,Z Vertex 2 {m}
  0, 11.2916164657906, 0,                 !- X,Y,Z Vertex 3 {m}
  0, 11.2916164657906, 4;                 !- X,Y,Z Vertex 4 {m}

OS:Surface,
  {43b50eef-fcdb-4c5e-80b8-4859f7077130}, !- Handle
  Surface 28,                             !- Name
  Wall,                                   !- Surface Type
  ,                                       !- Construction Name