
OS:Version,
  {7531c2a4-dc1b-4bad-9fc0-0588d8127abe}, !- Handle
  0.10.0;                                 !- Version Identifier

OS:BuildingStory,
  {be6f0857-0915-4ac0-a7c3-4ac3b7841428}, !- Handle
  Story 1,                                !- Name
  0,                                      !- Nominal Z Coordinate {m}
  4,                                      !- Nominal Floor to Floor Height {m}
  ,                                       !- Default Construction Set Name
  ,                                       !- Default Schedule Set Name
  ;                                       !- Group Rendering Name

OS:Space,
  {ff23d60f-21ee-4c49-962d-e7a02be7efb5}, !- Handle
  Story 1 West Perimeter Space,           !- Name
  ,                                       !- Space Type Name
  ,                                       !- Default Construction Set Name
  ,                                       !- Default Schedule Set Name
  -0,                                     !- Direction of Relative North {deg}
  0,                                      !- X Origin {m}
  0,                                      !- Y Origin {m}
  0,                                      !- Z Origin {m}
  {be6f0857-0915-4ac0-a7c3-4ac3b7841428}, !- Building Story Name
  {be1e4807-020c-4fd7-9b91-1bcc4bc5f597}; !- Thermal Zone Name

OS:Surface,
  {2d6a90fc-b6f1-4d55-9eab-0eee721db82a}, !- Handle
  Surface 1,                              !- Name
  Floor,                                  !- Surface Type
  ,                                       !- Construction Name
  {ff23d60f-21ee-4c49-962d-e7a02be7efb5}, !- Space Name
  Ground,                                 !- Outside Boundary Condition
  ,                                       !- Outside Boundary Condition Object
  NoSun,                                  !- Sun Exposure
  NoWind,                                 !- Wind Exposure
  ,                                       !- View Factor to Ground
  ,                                       !- Number of Vertices
  0, 0, 0,                                !- X,Y,Z Vertex 1 {m}
  0, 11.1803398874989, 0,                 !- X,Y,Z Vertex 2 {m}
  3, 8.18033988749895, 0,                 !- X,Y,Z Vertex 3 {m}
  3, 3, 0;                                !- X,Y,Z Vertex 4 {m}

OS:Surface,
  {178b2446-8e16-4521-b72b-39f4994f07e1}, !- Handle
  Surface 2,                              !- Name
  Wall,                                   !- Surface Type
  ,                                       !- Construction Name
  {ff23d60f-21ee-4c49-962d-e7a02be7efb5}, !- Space Name
  Outdoors,                               !- Outside Boundary Condition
  ,                                       !- Outside Boundary Condition Object
  SunExposed,                             !- Sun Exposure
  WindExposed,                            !- Wind Exposure
  ,                                       !- View Factor to Ground
  ,                                       !- Number of Vertices
  0, 11.1803398874989, 4,                 !- X,Y,Z Vertex 1 {m}
  0, 11.1803398874989, 0,                 !- X,Y,Z Vertex 2 {m}
  0, 0, 0,                                !- X,Y,Z Vertex 3 {m}
  0, 0, 4;                                !- X,Y,Z Vertex 4 {m}

OS:Surface,
  {39408d86-e65e-4c76-9512-ac51fd5aea4e}, !- Handle
  Surface 3,                              !- Name
  Wall,                                   !- Surface Type
  ,                                       !- Construction Name
  {ff23d60f-21ee-4c49-962d-e7a02be7efb5}, !- Space Name
  Surface,                                !- Outside Boundary Condition
  {d19b0347-3c0d-42ad-a10c-dc9e0e8d54e2}, !- Outside Boundary Condition Object
  NoSun,                                  !- Sun Exposure
  NoWind,                                 !- Wind Exposure
  ,                                       !- View Factor to Ground
  ,                                       !- Number of Vertices
  3, 8.18033988749895, 4,                 !- X,Y,Z Vertex 1 {m}
  3, 8.18033988749895, 0,                 !- X,Y,Z Vertex 2 {m}
  0, 11.1803398874989, 0,                 !- X,Y,Z Vertex 3 {m}
  0, 11.1803398874989, 4;                 !- X,Y,Z Vertex 4 {m}

OS:Surface,
  {72faf583-ad64-4d45-8a35-025559ca4732}, !- Handle
  Surface 4,                              !- Name
  Wall,                                   !- Surface Type
  ,                                       !- Construction Name
  {ff23d60f-21ee-4c49-962d-e7a02be7efb5}, !- Space Name
  Surface,                                !- Outside Boundary Condition
  {1a64130e-8eee-431f-bc8b-b4a203cbd073}, !- Outside Boundary Condition Object
  NoSun,                                  !- Sun Exposure
  NoWind,                                 !- Wind Exposure
  ,                                       !- View Factor to Ground
  ,                                       !- Number of Vertices
  3, 3, 4,                                !- X,Y,Z Vertex 1 {m}
  3, 3, 0,                                !- X,Y,Z Vertex 2 {m}
  3, 8.18033988749895, 0,                 !- X,Y,Z Vertex 3 {m}
  3, 8.18033988749895, 4;                 !- X,Y,Z Vertex 4 {m}

OS:Surface,
  {25200ce7-ce7c-4e3d-acaa-befc5ccd6682}, !- Handle
  Surface 5,                              !- Name
  Wall,                                   !- Surface Type
  ,                                       !- Construction Name
  {ff23d60f-21ee-4c49-962d-e7a02be7efb5}, !- Space Name
  Surface,                                !- Outside Boundary Condition
  {9f74c483-f2b5-4e97-858e-cd1618e4b8f0}, !- Outside Boundary Condition Object
  NoSun,                                  !- Sun Exposure
  NoWind,                                 !- Wind Exposure
  ,                                       !- View Factor to Ground
  ,                                       !- Number of Vertices
  0, 0, 4,                                !- X,Y,Z Vertex 1 {m}
  0, 0, 0,                                !- X,Y,Z Vertex 2 {m}
  3, 3, 0,                                !- X,Y,Z Vertex 3 {m}
  3, 3, 4;                                !- X,Y,Z Vertex 4 {m}

OS:Surface,
  {adeec918-b466-499f-bba2-e83b9847d967}, !- Handle
  Surface 6,                              !- Name
  RoofCeiling,                            !- Surface Type
  ,                                       !- Construction Name
  {ff23d60f-21ee-4c49-962d-e7a02be7efb5}, !- Space Name
  Surface,                                !- Outside Boundary Condition
  {8f6f2ff1-20c9-4f1d-880d-c177e567744b}, !- Outside Boundary Condition Object
  NoSun,                                  !- Sun Exposure
  NoWind,                                 !- Wind Exposure
  ,                                       !- View Factor to Ground
  ,                                       !- Number of Vertices
  3, 3, 4,                                !- X,Y,Z Vertex 1 {m}
  3, 8.18033988749895, 4,                 !- X,Y,Z Vertex 2 {m}
  0, 11.1803398874989, 4,                 !- X,Y,Z Vertex 3 {m}
  0, 0, 4;                                !- X,Y,Z Vertex 4 {m}

OS:Space,
  {284d4c4c-5e69-49bf-87e9-dcf27dd5a33d}, !- Handle
  Story 1 North Perimeter Space,          !- Name
  ,                                       !- Space Type Name
  ,                                       !- Default Construction Set Name
  ,                                       !- Default Schedule Set Name
  -0,                                     !- Direction of Relative North {deg}
  3,                                      !- X Origin {m}
  8.18033988749895,                       !- Y Origin {m}
  0,                                      !- Z Origin {m}
  {be6f0857-0915-4ac0-a7c3-4ac3b7841428}, !- Building Story Name
  {37ba925a-4cc8-491b-8a00-fc7f110eac19}; !- Thermal Zone Name

OS:Surface,
  {a293703b-1d5f-4549-bf8a-996450f1d623}, !- Handle
  Surface 7,                              !- Name
  Floor,                                  !- Surface Type
  ,                                       !- Construction Name
  {284d4c4c-5e69-49bf-87e9-dcf27dd5a33d}, !- Space Name
  Ground,                                 !- Outside Boundary Condition
  ,                                       !- Outside Boundary Condition Object
  NoSun,                                  !- Sun Exposure
  NoWind,                                 !- Wind Exposure
  ,                                       !- View Factor to Ground
  ,                                       !- Number of Vertices
  -3, 2.99999999999995, 0,                !- X,Y,Z Vertex 1 {m}
  8.1803398874989, 2.99999999999995, 0,   !- X,Y,Z Vertex 2 {m}
  5.18033988749895, 1.77635683940025e-15, 0, !- X,Y,Z Vertex 3 {m}
  0, 1.77635683940025e-15, 0;             !- X,Y,Z Vertex 4 {m}

OS:Surface,
  {0525aef5-1a04-4f58-a7cf-7daf9327d90f}, !- Handle
  Surface 8,                              !- Name
  Wall,                                   !- Surface Type
  ,                                       !- Construction Name
  {284d4c4c-5e69-49bf-87e9-dcf27dd5a33d}, !- Space Name
  Outdoors,                               !- Outside Boundary Condition
  ,                                       !- Outside Boundary Condition Object
  SunExposed,                             !- Sun Exposure
  WindExposed,                            !- Wind Exposure
  ,                                       !- View Factor to Ground
  ,                                       !- Number of Vertices
  8.1803398874989, 2.99999999999995, 4,   !- X,Y,Z Vertex 1 {m}
  8.1803398874989, 2.99999999999995, 0,   !- X,Y,Z Vertex 2 {m}
  -3, 2.99999999999995, 0,                !- X,Y,Z Vertex 3 {m}
  -3, 2.99999999999995, 4;                !- X,Y,Z Vertex 4 {m}

OS:Surface,
  {07dc896a-8b5d-41c9-a029-bf5bac49a455}, !- Handle
  Surface 9,                              !- Name
  Wall,                                   !- Surface Type
  ,                                       !- Construction Name
  {284d4c4c-5e69-49bf-87e9-dcf27dd5a33d}, !- Space Name
  Surface,                                !- Outside Boundary Condition
  {0ee66b6d-e196-4cc2-8b40-8849b40266a7}, !- Outside Boundary Condition Object
  NoSun,                                  !- Sun Exposure
  NoWind,                                 !- Wind Exposure
  ,                                       !- View Factor to Ground
  ,                                       !- Number of Vertices
  5.18033988749895, 1.77635683940025e-15, 4, !- X,Y,Z Vertex 1 {m}
  5.18033988749895, 1.77635683940025e-15, 0, !- X,Y,Z Vertex 2 {m}
  8.1803398874989, 2.99999999999995, 0,   !- X,Y,Z Vertex 3 {m}
  8.1803398874989, 2.99999999999995, 4;   !- X,Y,Z Vertex 4 {m}

OS:Surface,
  {d56e2759-67d7-44ab-afde-566c352161d6}, !- Handle
  Surface 10,                             !- Name
  Wall,                                   !- Surface Type
  ,                                       !- Construction Name
  {284d4c4c-5e69-49bf-87e9-dcf27dd5a33d}, !- Space Name
  Surface,                                !- Outside Boundary Condition
  {db16f163-141a-410b-8b59-415502c25c80}, !- Outside Boundary Condition Object
  NoSun,                                  !- Sun Exposure
  NoWind,                                 !- Wind Exposure
  ,                                       !- View Factor to Ground
  ,                                       !- Number of Vertices
  0, 1.77635683940025e-15, 4,             !- X,Y,Z Vertex 1 {m}
  0, 1.77635683940025e-15, 0,             !- X,Y,Z Vertex 2 {m}
  5.18033988749895, 1.77635683940025e-15, 0, !- X,Y,Z Vertex 3 {m}
  5.18033988749895, 1.77635683940025e-15, 4; !- X,Y,Z Vertex 4 {m}

OS:Surface,
  {d19b0347-3c0d-42ad-a10c-dc9e0e8d54e2}, !- Handle
  Surface 11,                             !- Name
  Wall,                                   !- Surface Type
  ,                                       !- Construction Name
  {284d4c4c-5e69-49bf-87e9-dcf27dd5a33d}, !- Space Name
  Surface,                                !- Outside Boundary Condition
  {39408d86-e65e-4c76-9512-ac51fd5aea4e}, !- Outside Boundary Condition Object
  NoSun,                                  !- Sun Exposure
  NoWind,                                 !- Wind Exposure
  ,                                       !- View Factor to Ground
  ,                                       !- Number of Vertices
  -3, 2.99999999999995, 4,                !- X,Y,Z Vertex 1 {m}
  -3, 2.99999999999995, 0,                !- X,Y,Z Vertex 2 {m}
  0, 1.77635683940025e-15, 0,             !- X,Y,Z Vertex 3 {m}
  0, 1.77635683940025e-15, 4;             !- X,Y,Z Vertex 4 {m}

OS:Surface,
  {a17f7151-824c-4a6e-87bf-7f1482ace9b9}, !- Handle
  Surface 12,                             !- Name
  RoofCeiling,                            !- Surface Type
  ,                                       !- Construction Name
  {284d4c4c-5e69-49bf-87e9-dcf27dd5a33d}, !- Space Name
  Surface,                                !- Outside Boundary Condition
  {5329e605-beee-4bed-acf7-423e45188a76}, !- Outside Boundary Condition Object
  NoSun,                                  !- Sun Exposure
  NoWind,                                 !- Wind Exposure
  ,                                       !- View Factor to Ground
  ,                                       !- Number of Vertices
  0, 1.77635683940025e-15, 4,             !- X,Y,Z Vertex 1 {m}
  5.18033988749895, 1.77635683940025e-15, 4, !- X,Y,Z Vertex 2 {m}
  8.1803398874989, 2.99999999999995, 4,   !- X,Y,Z Vertex 3 {m}
  -3, 2.99999999999995, 4;                !- X,Y,Z Vertex 4 {m}

OS:Space,
  {fd49a467-5a53-4cf0-93f1-dc100dcb60f9}, !- Handle
  Story 1 East Perimeter Space,           !- Name
  ,                                       !- Space Type Name
  ,                                       !- Default Construction Set Name
  ,                                       !- Default Schedule Set Name
  -0,                                     !- Direction of Relative North {deg}
  8.18033988749895,                       !- X Origin {m}
  3,                                      !- Y Origin {m}
  0,                                      !- Z Origin {m}
  {be6f0857-0915-4ac0-a7c3-4ac3b7841428}, !- Building Story Name
  {983359a2-ef2a-4c21-bde1-b1c4339441f2}; !- Thermal Zone Name

OS:Surface,
  {42b5c1e8-205a-4654-9e46-f23fae396038}, !- Handle
  Surface 13,                             !- Name
  Floor,                                  !- Surface Type
  ,                                       !- Construction Name
  {fd49a467-5a53-4cf0-93f1-dc100dcb60f9}, !- Space Name
  Ground,                                 !- Outside Boundary Condition
  ,                                       !- Outside Boundary Condition Object
  NoSun,                                  !- Sun Exposure
  NoWind,                                 !- Wind Exposure
  ,                                       !- View Factor to Ground
  ,                                       !- Number of Vertices
  2.99999999999995, 8.1803398874989, 0,   !- X,Y,Z Vertex 1 {m}
  2.99999999999995, -3, 0,                !- X,Y,Z Vertex 2 {m}
  1.77635683940025e-15, 0, 0,             !- X,Y,Z Vertex 3 {m}
  1.77635683940025e-15, 5.18033988749895, 0; !- X,Y,Z Vertex 4 {m}

OS:Surface,
  {0427bc0c-4349-4a5d-aa31-ae906aab46f7}, !- Handle
  Surface 14,                             !- Name
  Wall,                                   !- Surface Type
  ,                                       !- Construction Name
  {fd49a467-5a53-4cf0-93f1-dc100dcb60f9}, !- Space Name
  Outdoors,                               !- Outside Boundary Condition
  ,                                       !- Outside Boundary Condition Object
  SunExposed,                             !- Sun Exposure
  WindExposed,                            !- Wind Exposure
  ,                                       !- View Factor to Ground
  ,                                       !- Number of Vertices
  2.99999999999995, -3, 4,                !- X,Y,Z Vertex 1 {m}
  2.99999999999995, -3, 0,                !- X,Y,Z Vertex 2 {m}
  2.99999999999995, 8.1803398874989, 0,   !- X,Y,Z Vertex 3 {m}
  2.99999999999995, 8.1803398874989, 4;   !- X,Y,Z Vertex 4 {m}

OS:Surface,
  {3e76fc2b-a0d4-44fa-8d21-8e83125177b8}, !- Handle
  Surface 15,                             !- Name
  Wall,                                   !- Surface Type
  ,                                       !- Construction Name
  {fd49a467-5a53-4cf0-93f1-dc100dcb60f9}, !- Space Name
  Surface,                                !- Outside Boundary Condition
  {0e6c6299-7631-4c1c-a2f1-bfa7a0402dee}, !- Outside Boundary Condition Object
  NoSun,                                  !- Sun Exposure
  NoWind,                                 !- Wind Exposure
  ,                                       !- View Factor to Ground
  ,                                       !- Number of Vertices
  1.77635683940025e-15, 0, 4,             !- X,Y,Z Vertex 1 {m}
  1.77635683940025e-15, 0, 0,             !- X,Y,Z Vertex 2 {m}
  2.99999999999995, -3, 0,                !- X,Y,Z Vertex 3 {m}
  2.99999999999995, -3, 4;                !- X,Y,Z Vertex 4 {m}

OS:Surface,
  {593df692-3380-4381-9a83-db71536db13f}, !- Handle
  Surface 16,                             !- Name
  Wall,                                   !- Surface Type
  ,                                       !- Construction Name
  {fd49a467-5a53-4cf0-93f1-dc100dcb60f9}, !- Space Name
  Surface,                                !- Outside Boundary Condition
  {69e330a7-66a1-4819-b850-3f1c1bba58a7}, !- Outside Boundary Condition Object
  NoSun,                                  !- Sun Exposure
  NoWind,                                 !- Wind Exposure
  ,                                       !- View Factor to Ground
  ,                                       !- Number of Vertices
  1.77635683940025e-15, 5.18033988749895, 4, !- X,Y,Z Vertex 1 {m}
  1.77635683940025e-15, 5.18033988749895, 0, !- X,Y,Z Vertex 2 {m}
  1.77635683940025e-15, 0, 0,             !- X,Y,Z Vertex 3 {m}
  1.77635683940025e-15, 0, 4;             !- X,Y,Z Vertex 4 {m}

OS:Surface,
  {0ee66b6d-e196-4cc2-8b40-8849b40266a7}, !- Handle
  Surface 17,                             !- Name
  Wall,                                   !- Surface Type
  ,                                       !- Construction Name
  {fd49a467-5a53-4cf0-93f1-dc100dcb60f9}, !- Space Name
  Surface,                                !- Outside Boundary Condition
  {07dc896a-8b5d-41c9-a029-bf5bac49a455}, !- Outside Boundary Condition Object
  NoSun,                                  !- Sun Exposure
  NoWind,                                 !- Wind Exposure
  ,                                       !- View Factor to Ground
  ,                                       !- Number of Vertices
  2.99999999999995, 8.1803398874989, 4,   !- X,Y,Z Vertex 1 {m}
  2.99999999999995, 8.1803398874989, 0,   !- X,Y,Z Vertex 2 {m}
  1.77635683940025e-15, 5.18033988749895, 0, !- X,Y,Z Vertex 3 {m}
  1.77635683940025e-15, 5.18033988749895, 4; !- X,Y,Z Vertex 4 {m}

OS:Surface,
  {99ad5533-6abf-498b-a0b6-d9366c846514}, !- Handle
  Surface 18,                             !- Name
  RoofCeiling,                            !- Surface Type
  ,                                       !- Construction Name
  {fd49a467-5a53-4cf0-93f1-dc100dcb60f9}, !- Space Name
  Surface,                                !- Outside Boundary Condition
  {4a1b6cfb-fd46-418c-b259-1ddeb8197201}, !- Outside Boundary Condition Object
  NoSun,                                  !- Sun Exposure
  NoWind,                                 !- Wind Exposure
  ,                                       !- View Factor to Ground
  ,                                       !- Number of Vertices
  1.77635683940025e-15, 5.18033988749895, 4, !- X,Y,Z Vertex 1 {m}
  1.77635683940025e-15, 0, 4,             !- X,Y,Z Vertex 2 {m}
  2.99999999999995, -3, 4,                !- X,Y,Z Vertex 3 {m}
  2.99999999999995, 8.1803398874989, 4;   !- X,Y,Z Vertex 4 {m}

OS:Space,
  {990dfa01-1b04-44cd-be9f-7cd45362f775}, !- Handle
  Story 1 South Perimeter Space,          !- Name
  ,                                       !- Space Type Name
  ,                                       !- Default Construction Set Name
  ,                                       !- Default Schedule Set Name
  -0,                                     !- Direction of Relative North {deg}
  0,                                      !- X Origin {m}
  0,                                      !- Y Origin {m}
  0,                                      !- Z Origin {m}
  {be6f0857-0915-4ac0-a7c3-4ac3b7841428}, !- Building Story Name
  {313d36b9-5752-4f73-9d2c-d7ae03a178e2}; !- Thermal Zone Name

OS:Surface,
  {004c7474-1a3f-462a-bc6c-b738f205d3ec}, !- Handle
  Surface 19,                             !- Name
  Floor,                                  !- Surface Type
  ,                                       !- Construction Name
  {990dfa01-1b04-44cd-be9f-7cd45362f775}, !- Space Name
  Ground,                                 !- Outside Boundary Condition
  ,                                       !- Outside Boundary Condition Object
  NoSun,                                  !- Sun Exposure
  NoWind,                                 !- Wind Exposure
  ,                                       !- View Factor to Ground
  ,                                       !- Number of Vertices
  11.1803398874989, 0, 0,                 !- X,Y,Z Vertex 1 {m}
  0, 0, 0,                                !- X,Y,Z Vertex 2 {m}
  3, 3, 0,                                !- X,Y,Z Vertex 3 {m}
  8.18033988749895, 3, 0;                 !- X,Y,Z Vertex 4 {m}

OS:Surface,
  {afb7fc60-1833-4a2b-ad21-16ef7e7e7fcf}, !- Handle
  Surface 20,                             !- Name
  Wall,                                   !- Surface Type
  ,                                       !- Construction Name
  {990dfa01-1b04-44cd-be9f-7cd45362f775}, !- Space Name
  Outdoors,                               !- Outside Boundary Condition
  ,                                       !- Outside Boundary Condition Object
  SunExposed,                             !- Sun Exposure
  WindExposed,                            !- Wind Exposure
  ,                                       !- View Factor to Ground
  ,                                       !- Number of Vertices
  0, 0, 4,                                !- X,Y,Z Vertex 1 {m}
  0, 0, 0,                                !- X,Y,Z Vertex 2 {m}
  11.1803398874989, 0, 0,                 !- X,Y,Z Vertex 3 {m}
  11.1803398874989, 0, 4;                 !- X,Y,Z Vertex 4 {m}

OS:Surface,
  {9f74c483-f2b5-4e97-858e-cd1618e4b8f0}, !- Handle
  Surface 21,                             !- Name
  Wall,                                   !- Surface Type
  ,                                       !- Construction Name
  {990dfa01-1b04-44cd-be9f-7cd45362f775}, !- Space Name
  Surface,                                !- Outside Boundary Condition
  {25200ce7-ce7c-4e3d-acaa-befc5ccd6682}, !- Outside Boundary Condition Object
  NoSun,                                  !- Sun Exposure
  NoWind,                                 !- Wind Exposure
  ,                                       !- View Factor to Ground
  ,                                       !- Number of Vertices
  3, 3, 4,                                !- X,Y,Z Vertex 1 {m}
  3, 3, 0,                                !- X,Y,Z Vertex 2 {m}
  0, 0, 0,                                !- X,Y,Z Vertex 3 {m}
  0, 0, 4;                                !- X,Y,Z Vertex 4 {m}

OS:Surface,
  {a0f271a0-7b9b-4e72-93e6-12b2e3cbf745}, !- Handle
  Surface 22,                             !- Name
  Wall,                                   !- Surface Type
  ,                                       !- Construction Name
  {990dfa01-1b04-44cd-be9f-7cd45362f775}, !- Space Name
  Surface,                                !- Outside Boundary Condition
  {0adbfa22-9b4e-4846-b504-fbc6543a1623}, !- Outside Boundary Condition Object
  NoSun,                                  !- Sun Exposure
  NoWind,                                 !- Wind Exposure
  ,                                       !- View Factor to Ground
  ,                                       !- Number of Vertices
  8.18033988749895, 3, 4,                 !- X,Y,Z Vertex 1 {m}
  8.18033988749895, 3, 0,                 !- X,Y,Z Vertex 2 {m}
  3, 3, 0,                                !- X,Y,Z Vertex 3 {m}
  3, 3, 4;                                !- X,Y,Z Vertex 4 {m}

OS:Surface,
  {0e6c6299-7631-4c1c-a2f1-bfa7a0402dee}, !- Handle
  Surface 23,                             !- Name
  Wall,                                   !- Surface Type
  ,                                       !- Construction Name
  {990dfa01-1b04-44cd-be9f-7cd45362f775}, !- Space Name
  Surface,                                !- Outside Boundary Condition
  {3e76fc2b-a0d4-44fa-8d21-8e83125177b8}, !- Outside Boundary Condition Object
  NoSun,                                  !- Sun Exposure
  NoWind,                                 !- Wind Exposure
  ,                                       !- View Factor to Ground
  ,                                       !- Number of Vertices
  11.1803398874989, 0, 4,                 !- X,Y,Z Vertex 1 {m}
  11.1803398874989, 0, 0,                 !- X,Y,Z Vertex 2 {m}
  8.18033988749895, 3, 0,                 !- X,Y,Z Vertex 3 {m}
  8.18033988749895, 3, 4;                 !- X,Y,Z Vertex 4 {m}

OS:Surface,
  {1541f7bf-e7d0-49ca-b003-8b0d3be82d12}, !- Handle
  Surface 24,                             !- Name
  RoofCeiling,                            !- Surface Type
  ,                                       !- Construction Name
  {990dfa01-1b04-44cd-be9f-7cd45362f775}, !- Space Name
  Surface,                                !- Outside Boundary Condition
  {62ec8edc-167b-4913-a83e-205998b25473}, !- Outside Boundary Condition Object
  NoSun,                                  !- Sun Exposure
  NoWind,                                 !- Wind Exposure
  ,                                       !- View Factor to Ground
  ,                                       !- Number of Vertices
  8.18033988749895, 3, 4,                 !- X,Y,Z Vertex 1 {m}
  3, 3, 4,                                !- X,Y,Z Vertex 2 {m}
  0, 0, 4,                                !- X,Y,Z Vertex 3 {m}
  11.1803398874989, 0, 4;                 !- X,Y,Z Vertex 4 {m}

OS:Space,
  {506e9265-3fc0-40f3-936d-55dde8a53311}, !- Handle
  Story 1 Core Space,                     !- Name
  ,                                       !- Space Type Name
  ,                                       !- Default Construction Set Name
  ,                                       !- Default Schedule Set Name
  -0,                                     !- Direction of Relative North {deg}
  3,                                      !- X Origin {m}
  3,                                      !- Y Origin {m}
  0,                                      !- Z Origin {m}
  {be6f0857-0915-4ac0-a7c3-4ac3b7841428}, !- Building Story Name
  {b14fc9f0-af95-4367-91b8-6d043233c005}; !- Thermal Zone Name

OS:Surface,
  {b473ac1a-4fdb-4c20-92b8-560cfbb1a071}, !- Handle
  Surface 25,                             !- Name
  Floor,                                  !- Surface Type
  ,                                       !- Construction Name
  {506e9265-3fc0-40f3-936d-55dde8a53311}, !- Space Name
  Ground,                                 !- Outside Boundary Condition
  ,                                       !- Outside Boundary Condition Object
  NoSun,                                  !- Sun Exposure
  NoWind,                                 !- Wind Exposure
  ,                                       !- View Factor to Ground
  ,                                       !- Number of Vertices
  0, 0, 0,                                !- X,Y,Z Vertex 1 {m}
  0, 5.18033988749895, 0,                 !- X,Y,Z Vertex 2 {m}
  5.18033988749895, 5.18033988749895, 0,  !- X,Y,Z Vertex 3 {m}
  5.18033988749895, 0, 0;                 !- X,Y,Z Vertex 4 {m}

OS:Surface,
  {1a64130e-8eee-431f-bc8b-b4a203cbd073}, !- Handle
  Surface 26,                             !- Name
  Wall,                                   !- Surface Type
  ,                                       !- Construction Name
  {506e9265-3fc0-40f3-936d-55dde8a53311}, !- Space Name
  Surface,                                !- Outside Boundary Condition
  {72faf583-ad64-4d45-8a35-025559ca4732}, !- Outside Boundary Condition Object
  NoSun,                                  !- Sun Exposure
  NoWind,                                 !- Wind Exposure
  ,                                       !- View Factor to Ground
  ,                                       !- Number of Vertices
  0, 5.18033988749895, 4,                 !- X,Y,Z Vertex 1 {m}
  0, 5.18033988749895, 0,                 !- X,Y,Z Vertex 2 {m}
  0, 0, 0,                                !- X,Y,Z Vertex 3 {m}
  0, 0, 4;                                !- X,Y,Z Vertex 4 {m}

OS:Surface,
  {db16f163-141a-410b-8b59-415502c25c80}, !- Handle
  Surface 27,                             !- Name
  Wall,                                   !- Surface Type
  ,                                       !- Construction Name
  {506e9265-3fc0-40f3-936d-55dde8a53311}, !- Space Name
  Surface,                                !- Outside Boundary Condition
  {d56e2759-67d7-44ab-afde-566c352161d6}, !- Outside Boundary Condition Object
  NoSun,                                  !- Sun Exposure
  NoWind,                                 !- Wind Exposure
  ,                                       !- View Factor to Ground
  ,                                       !- Number of Vertices
  5.18033988749895, 5.18033988749895, 4,  !- X,Y,Z Vertex 1 {m}
  5.18033988749895, 5.18033988749895, 0,  !- X,Y,Z Vertex 2 {m}
  0, 5.18033988749895, 0,                 !- X,Y,Z Vertex 3 {m}
  0, 5.18033988749895, 4;                 !- X,Y,Z Vertex 4 {m}

OS:Surface,
  {69e330a7-66a1-4819-b850-3f1c1bba58a7}, !- Handle
  Surface 28,                             !- Name
  Wall,                                   !- Surface Type
  ,                                       !- Construction Name