
OS:Version,
  {80780dce-1527-465a-8bdc-878aa5e5d697}, !- Handle
  0.10.0;                                 !- Version Identifier

OS:BuildingStory,
  {86163c02-2d46-48e2-8085-a19c707c8650}, !- Handle
  Story 1,                                !- Name
  0,                                      !- Nominal Z Coordinate {m}
  4,                                      !- Nominal Floor to Floor Height {m}
  ,                                       !- Default Construction Set Name
  ,                                       !- Default Schedule Set Name
  ;                                       !- Group Rendering Name

OS:Space,
  {059f0347-3c09-4fe3-b8f1-dfc9bfa8bcd3}, !- Handle
  Story 1 West Perimeter Space,           !- Name
  ,                                       !- Space Type Name
  ,                                       !- Default Construction Set Name
  ,                                       !- Default Schedule Set Name
  -0,                                     !- Direction of Relative North {deg}
  0,                                      !- X Origin {m}
  0,                                      !- Y Origin {m}
  0,                                      !- Z Origin {m}
  {86163c02-2d46-48e2-8085-a19c707c8650}, !- Building Story Name
  {0e9c7776-fb4f-4218-bcf3-b9f500937420}; !- Thermal Zone Name

OS:Surface,
  {37de4fee-c139-4df1-b9ed-0a79f87bd2dc}, !- Handle
  Surface 1,                              !- Name
  Floor,                                  !- Surface Type
  ,                                       !- Construction Name
  {059f0347-3c09-4fe3-b8f1-dfc9bfa8bcd3}, !- Space Name
  Ground,                                 !- Outside Boundary Condition
  ,                                       !- Outside Boundary Condition Object
  NoSun,                                  !- Sun Exposure
  NoWind,                                 !- Wind Exposure
  ,                                       !- View Factor to Ground
  ,                                       !- Number of Vertices
  0, 0, 0,                                !- X,Y,Z Vertex 1 {m}
  0, 14.142135623731, 0,                  !- X,Y,Z Vertex 2 {m}
  3, 11.142135623731, 0,                  !- X,Y,Z Vertex 3 {m}
  3, 3, 0;                                !- X,Y,Z Vertex 4 {m}

OS:Surface,
  {5e7671d5-55a3-4ef6-aefa-66c9067ebe5f}, !- Handle
  Surface 2,                              !- Name
  Wall,                                   !- Surface Type
  ,                                       !- Construction Name
  {059f0347-3c09-4fe3-b8f1-dfc9bfa8bcd3}, !- Space Name
  Outdoors,                               !- Outside Boundary Condition
  ,                                       !- Outside Boundary Condition Object
  SunExposed,                             !- Sun Exposure
  WindExposed,                            !- Wind Exposure
  ,                                       !- View Factor to Ground
  ,                                       !- Number of Vertices
  0, 14.142135623731, 4,                  !- X,Y,Z Vertex 1 {m}
  0, 14.142135623731, 0,                  !- X,Y,Z Vertex 2 {m}
  0, 0, 0,                                !- X,Y,Z Vertex 3 {m}
  0, 0, 4;                                !- X,Y,Z Vertex 4 {m}

OS:Surface,
  {3d22e634-f32b-4700-a2c6-47c2ebb2d807}, !- Handle
  Surface 3,                              !- Name
  Wall,                                   !- Surface Type
  ,                                       !- Construction Name
  {059f0347-3c09-4fe3-b8f1-dfc9bfa8bcd3}, !- Space Name
  Surface,                                !- Outside Boundary Condition
  {24224d68-d44d-4fc5-b95c-703189819c7d}, !- Outside Boundary Condition Object
  NoSun,                                  !- Sun Exposure
  NoWind,                                 !- Wind Exposure
  ,                                       !- View Factor to Ground
  ,                                       !- Number of Vertices
  3, 11.142135623731, 4,                  !- X,Y,Z Vertex 1 {m}
  3, 11.142135623731, 0,                  !- X,Y,Z Vertex 2 {m}
  0, 14.142135623731, 0,                  !- X,Y,Z Vertex 3 {m}
  0, 14.142135623731, 4;                  !- X,Y,Z Vertex 4 {m}

OS:Surface,
  {b1538b95-f6b3-4aa9-8c83-2b8275bf39a1}, !- Handle
  Surface 4,                              !- Name
  Wall,                                   !- Surface Type
  ,                                       !- Construction Name
  {059f0347-3c09-4fe3-b8f1-dfc9bfa8bcd3}, !- Space Name
  Surface,                                !- Outside Boundary Condition
  {81f4e386-35dd-48e9-97b0-2d7c68d25724}, !- Outside Boundary Condition Object
  NoSun,                                  !- Sun Exposure
  NoWind,                                 !- Wind Exposure
  ,                                       !- View Factor to Ground
  ,                                       !- Number of Vertices
  3, 3, 4,                                !- X,Y,Z Vertex 1 {m}
  3, 3, 0,                                !- X,Y,Z Vertex 2 {m}
  3, 11.142135623731, 0,                  !- X,Y,Z Vertex 3 {m}
  3, 11.142135623731, 4;                  !- X,Y,Z Vertex 4 {m}

OS:Surface,
  {9e87ec15-21c8-4a5d-8d29-434449770d9b}, !- Handle
  Surface 5,                              !- Name
  Wall,                                   !- Surface Type
  ,                                       !- Construction Name
  {059f0347-3c09-4fe3-b8f1-dfc9bfa8bcd3}, !- Space Name
  Surface,                                !- Outside Boundary Condition
  {e3e686b6-c29c-4a86-8df3-70ec8cfbc0ca}, !- Outside Boundary Condition Object
  NoSun,                                  !- Sun Exposure
  NoWind,                                 !- Wind Exposure
  ,                                       !- View Factor to Ground
  ,                                       !- Number of Vertices
  0, 0, 4,                                !- X,Y,Z Vertex 1 {m}
  0, 0, 0,                                !- X,Y,Z Vertex 2 {m}
  3, 3, 0,                                !- X,Y,Z Vertex 3 {m}
  3, 3, 4;                                !- X,Y,Z Vertex 4 {m}

OS:Surface,
  {b4c56fa4-fd57-4b52-8a12-6ee90c16af39}, !- Handle
  Surface 6,                              !- Name
  RoofCeiling,                            !- Surface Type
  ,                                       !- Construction Name
  {059f0347-3c09-4fe3-b8f1-dfc9bfa8bcd3}, !- Space Name
  Outdoors,                               !- Outside Boundary Condition
  ,                                       !- Outside Boundary Condition Object
  SunExposed,                             !- Sun Exposure
  WindExposed,                            !- Wind Exposure
  ,                                       !- View Factor to Ground
  ,                                       !- Number of Vertices
  3, 3, 4,                                !- X,Y,Z Vertex 1 {m}
  3, 11.142135623731, 4,                  !- X,Y,Z Vertex 2 {m}
  0, 14.142135623731, 4,                  !- X,Y,Z Vertex 3 {m}
  0, 0, 4;                                !- X,Y,Z Vertex 4 {m}

OS:Space,
  {0aa40126-81ce-412e-b9f8-0ef844fa09f9}, !- Handle
  Story 1 North Perimeter Space,          !- Name
  ,                                       !- Space Type Name
  ,                                       !- Default Construction Set Name
  ,                                       !- Default Schedule Set Name
  -0,                                     !- Direction of Relative North {deg}
  3,                                      !- X Origin {m}
  11.142135623731,                        !- Y Origin {m}
  0,                                      !- Z Origin {m}
  {86163c02-2d46-48e2-8085-a19c707c8650}, !- Building Story Name
  {66b2a809-390d-4b37-b6a9-806d3edf4695}; !- Thermal Zone Name

OS:Surface,
  {95539435-0fe3-45ec-ab16-76790a0ddf58}, !- Handle
  Surface 7,                              !- Name
  Floor,                                  !- Surface Type
  ,                                       !- Construction Name
  {0aa40126-81ce-412e-b9f8-0ef844fa09f9}, !- Space Name
  Ground,                                 !- Outside Boundary Condition
  ,                                       !- Outside Boundary Condition Object
  NoSun,                                  !- Sun Exposure
  NoWind,                                 !- Wind Exposure
  ,                                       !- View Factor to Ground
  ,                                       !- Number of Vertices
  -3, 3.00000000000005, 0,                !- X,Y,Z Vertex 1 {m}
  11.142135623731, 3.00000000000005, 0,   !- X,Y,Z Vertex 2 {m}
  8.142135623731, 4.9737991503207e-14, 0, !- X,Y,Z Vertex 3 {m}
  0, 4.9737991503207e-14, 0;              !- X,Y,Z Vertex 4 {m}

OS:Surface,
  {bcf2de0e-3bef-4302-9f18-1ef1f18694c1}, !- Handle
  Surface 8,                              !- Name
  Wall,                                   !- Surface Type
  ,                                       !- Construction Name
  {0aa40126-81ce-412e-b9f8-0ef844fa09f9}, !- Space Name
  Outdoors,                               !- Outside Boundary Condition
  ,                                       !- Outside Boundary Condition Object
  SunExposed,                             !- Sun Exposure
  WindExposed,                            !- Wind Exposure
  ,                                       !- View Factor to Ground
  ,                                       !- Number of Vertices
  11.142135623731, 3.00000000000005, 4,   !- X,Y,Z Vertex 1 {m}
  11.142135623731, 3.00000000000005, 0,   !- X,Y,Z Vertex 2 {m}
  -3, 3.00000000000005, 0,                !- X,Y,Z Vertex 3 {m}
  -3, 3.00000000000005, 4;                !- X,Y,Z Vertex 4 {m}

OS:Surface,
  {81ace2cd-93ce-428a-95e3-550e6f6fae31}, !- Handle
  Surface 9,                              !- Name
  Wall,                                   !- Surface Type
  ,                                       !- Construction Name
  {0aa40126-81ce-412e-b9f8-0ef844fa09f9}, !- Space Name
  Surface,                                !- Outside Boundary Condition
  {b59d12d7-6fff-45d4-beae-9fb61ca5b184}, !- Outside Boundary Condition Object
  NoSun,                                  !- Sun Exposure
  NoWind,                                 !- Wind Exposure
  ,                                       !- View Factor to Ground
  ,                                       !- Number of Vertices
  8.142135623731, 4.9737991503207e-14, 4, !- X,Y,Z Vertex 1 {m}
  8.142135623731, 4.9737991503207e-14, 0, !- X,Y,Z Vertex 2 {m}
  11.142135623731, 3.00000000000005, 0,   !- X,Y,Z Vertex 3 {m}
  11.142135623731, 3.00000000000005, 4;   !- X,Y,Z Vertex 4 {m}

OS:Surface,
  {615efb54-035d-4959-a833-f10b22161ffc}, !- Handle
  Surface 10,                             !- Name
  Wall,                                   !- Surface Type
  ,                                       !- Construction Name
  {0aa40126-81ce-412e-b9f8-0ef844fa09f9}, !- Space Name
  Surface,                                !- Outside Boundary Condition
  {40de72b2-4b41-4be0-9fef-6c23dbaf7b96}, !- Outside Boundary Condition Object
  NoSun,                                  !- Sun Exposure
  NoWind,                                 !- Wind Exposure
  ,                                       !- View Factor to Ground
  ,                                       !- Number of Vertices
  0, 4.9737991503207e-14, 4,              !- X,Y,Z Vertex 1 {m}
  0, 4.9737991503207e-14, 0,              !- X,Y,Z Vertex 2 {m}
  8.142135623731, 4.9737991503207e-14, 0, !- X,Y,Z Vertex 3 {m}
  8.142135623731, 4.9737991503207e-14, 4; !- X,Y,Z Vertex 4 {m}

OS:Surface,
  {24224d68-d44d-4fc5-b95c-703189819c7d}, !- Handle
  Surface 11,                             !- Name
  Wall,                                   !- Surface Type
  ,                                       !- Construction Name
  {0aa40126-81ce-412e-b9f8-0ef844fa09f9}, !- Space Name
  Surface,                                !- Outside Boundary Condition
  {3d22e634-f32b-4700-a2c6-47c2ebb2d807}, !- Outside Boundary Condition Object
  NoSun,                                  !- Sun Exposure
  NoWind,                                 !- Wind Exposure
  ,                                       !- View Factor to Ground
  ,                                       !- Number of Vertices
  -3, 3.00000000000005, 4,                !- X,Y,Z Vertex 1 {m}
  -3, 3.00000000000005, 0,                !- X,Y,Z Vertex 2 {m}
  0, 4.9737991503207e-14, 0,              !- X,Y,Z Vertex 3 {m}
  0, 4.9737991503207e-14, 4;              !- X,Y,Z Vertex 4 {m}

OS:Surface,
  {3443def6-f0a1-49ab-889f-8e0daa4cedca}, !- Handle
  Surface 12,                             !- Name
  RoofCeiling,                            !- Surface Type
  ,                                       !- Construction Name
  {0aa40126-81ce-412e-b9f8-0ef844fa09f9}, !- Space Name
  Outdoors,                               !- Outside Boundary Condition
  ,                                       !- Outside Boundary Condition Object
  SunExposed,                             !- Sun Exposure
  WindExposed,                            !- Wind Exposure
  ,                                       !- View Factor to Ground
  ,                                       !- Number of Vertices
  0, 4.9737991503207e-14, 4,              !- X,Y,Z Vertex 1 {m}
  8.142135623731, 4.9737991503207e-14, 4, !- X,Y,Z Vertex 2 {m}
  11.142135623731, 3.00000000000005, 4,   !- X,Y,Z Vertex 3 {m}
  -3, 3.00000000000005, 4;                !- X,Y,Z Vertex 4 {m}

OS:Space,
  {d3660ea7-134a-482b-b489-efb67515583d}, !- Handle
  Story 1 East Perimeter Space,           !- Name
  ,                                       !- Space Type Name
  ,                                       !- Default Construction Set Name
  ,                                       !- Default Schedule Set Name
  -0,                                     !- Direction of Relative North {deg}
  11.142135623731,                        !- X Origin {m}
  3,                                      !- Y Origin {m}
  0,                                      !- Z Origin {m}
  {86163c02-2d46-48e2-8085-a19c707c8650}, !- Building Story Name
  {5fd650d9-dc61-4753-8363-a841b7b841fb}; !- Thermal Zone Name

OS:Surface,
  {bfc3f370-c016-41de-bed5-a0a46a5b5184}, !- Handle
  Surface 13,                             !- Name
  Floor,                                  !- Surface Type
  ,                                       !- Construction Name
  {d3660ea7-134a-482b-b489-efb67515583d}, !- Space Name
  Ground,                                 !- Outside Boundary Condition
  ,                                       !- Outside Boundary Condition Object
  NoSun,                                  !- Sun Exposure
  NoWind,                                 !- Wind Exposure
  ,                                       !- View Factor to Ground
  ,                                       !- Number of Vertices
  3.00000000000005, 11.142135623731, 0,   !- X,Y,Z Vertex 1 {m}
  3.00000000000005, -3, 0,                !- X,Y,Z Vertex 2 {m}
  4.9737991503207e-14, 0, 0,              !- X,Y,Z Vertex 3 {m}
  4.9737991503207e-14, 8.142135623731, 0; !- X,Y,Z Vertex 4 {m}

OS:Surface,
  {a19772a1-c1bf-46cc-b99f-f0d71776c390}, !- Handle
  Surface 14,                             !- Name
  Wall,                                   !- Surface Type
  ,                                       !- Construction Name
  {d3660ea7-134a-482b-b489-efb67515583d}, !- Space Name
  Outdoors,                               !- Outside Boundary Condition
  ,                                       !- Outside Boundary Condition Object
  SunExposed,                             !- Sun Exposure
  WindExposed,                            !- Wind Exposure
  ,                                       !- View Factor to Ground
  ,                                       !- Number of Vertices
  3.00000000000005, -3, 4,                !- X,Y,Z Vertex 1 {m}
  3.00000000000005, -3, 0,                !- X,Y,Z Vertex 2 {m}
  3.00000000000005, 11.142135623731, 0,   !- X,Y,Z Vertex 3 {m}
  3.00000000000005, 11.142135623731, 4;   !- X,Y,Z Vertex 4 {m}

OS:Surface,
  {2e86659e-ef14-4daa-acf1-238828924830}, !- Handle
  Surface 15,                             !- Name
  Wall,                                   !- Surface Type
  ,                                       !- Construction Name
  {d3660ea7-134a-482b-b489-efb67515583d}, !- Space Name
  Surface,                                !- Outside Boundary Condition
  {8b8074b0-6198-4691-b1c5-7acb4e5042ac}, !- Outside Boundary Condition Object
  NoSun,                                  !- Sun Exposure
  NoWind,                                 !- Wind Exposure
  ,                                       !- View Factor to Ground
  ,                                       !- Number of Vertices
  4.9737991503207e-14, 0, 4,              !- X,Y,Z Vertex 1 {m}
  4.9737991503207e-14, 0, 0,              !- X,Y,Z Vertex 2 {m}
  3.00000000000005, -3, 0,                !- X,Y,Z Vertex 3 {m}
  3.00000000000005, -3, 4;                !- X,Y,Z Vertex 4 {m}

OS:Surface,
  {0adb543e-aeaf-4154-9e84-dc81b47ae989}, !- Handle
  Surface 16,                             !- Name
  Wall,                                   !- Surface Type
  ,                                       !- Construction Name
  {d3660ea7-134a-482b-b489-efb67515583d}, !- Space Name
  Surface,                                !- Outside Boundary Condition
  {8278a390-c183-4c93-9987-abb52446c528}, !- Outside Boundary Condition Object
  NoSun,                                  !- Sun Exposure
  NoWind,                                 !- Wind Exposure
  ,                                       !- View Factor to Ground
  ,                                       !- Number of Vertices
  4.9737991503207e-14, 8.142135623731, 4, !- X,Y,Z Vertex 1 {m}
  4.9737991503207e-14, 8.142135623731, 0, !- X,Y,Z Vertex 2 {m}
  4.9737991503207e-14, 0, 0,              !- X,Y,Z Vertex 3 {m}
  4.9737991503207e-14, 0, 4;              !- X,Y,Z Vertex 4 {m}

OS:Surface,
  {b59d12d7-6fff-45d4-beae-9fb61ca5b184}, !- Handle
  Surface 17,                             !- Name
  Wall,                                   !- Surface Type
  ,                                       !- Construction Name
  {d3660ea7-134a-482b-b489-efb67515583d}, !- Space Name
  Surface,                                !- Outside Boundary Condition
  {81ace2cd-93ce-428a-95e3-550e6f6fae31}, !- Outside Boundary Condition Object
  NoSun,                                  !- Sun Exposure
  NoWind,                                 !- Wind Exposure
  ,                                       !- View Factor to Ground
  ,                                       !- Number of Vertices
  3.00000000000005, 11.142135623731, 4,   !- X,Y,Z Vertex 1 {m}
  3.00000000000005, 11.142135623731, 0,   !- X,Y,Z Vertex 2 {m}
  4.9737991503207e-14, 8.142135623731, 0, !- X,Y,Z Vertex 3 {m}
  4.9737991503207e-14, 8.142135623731, 4; !- X,Y,Z Vertex 4 {m}

OS:Surface,
  {e800124c-7802-49ba-ada3-9986cfa3dea7}, !- Handle
  Surface 18,                             !- Name
  RoofCeiling,                            !- Surface Type
  ,                                       !- Construction Name
  {d3660ea7-134a-482b-b489-efb67515583d}, !- Space Name
  Outdoors,                               !- Outside Boundary Condition
  ,                                       !- Outside Boundary Condition Object
  SunExposed,                             !- Sun Exposure
  WindExposed,                            !- Wind Exposure
  ,                                       !- View Factor to Ground
  ,                                       !- Number of Vertices
  4.9737991503207e-14, 8.142135623731, 4, !- X,Y,Z Vertex 1 {m}
  4.9737991503207e-14, 0, 4,              !- X,Y,Z Vertex 2 {m}
  3.00000000000005, -3, 4,                !- X,Y,Z Vertex 3 {m}
  3.00000000000005, 11.142135623731, 4;   !- X,Y,Z Vertex 4 {m}

OS:Space,
  {fd972385-dca5-41f2-80b2-03ff179d1e55}, !- Handle
  Story 1 South Perimeter Space,          !- Name
  ,                                       !- Space Type Name
  ,                                       !- Default Construction Set Name
  ,                                       !- Default Schedule Set Name
  -0,                                     !- Direction of Relative North {deg}
  0,                                      !- X Origin {m}
  0,                                      !- Y Origin {m}
  0,                                      !- Z Origin {m}
  {86163c02-2d46-48e2-8085-a19c707c8650}, !- Building Story Name
  {a7fb4f95-5a51-4a18-b133-9e48f4fb5a9a}; !- Thermal Zone Name

OS:Surface,
  {9147b148-7614-493a-a2de-6df9a39d7775}, !- Handle
  Surface 19,                             !- Name
  Floor,                                  !- Surface Type
  ,                                       !- Construction Name
  {fd972385-dca5-41f2-80b2-03ff179d1e55}, !- Space Name
  Ground,                                 !- Outside Boundary Condition
  ,                                       !- Outside Boundary Condition Object
  NoSun,                                  !- Sun Exposure
  NoWind,                                 !- Wind Exposure
  ,                                       !- View Factor to Ground
  ,                                       !- Number of Vertices
  14.142135623731, 0, 0,                  !- X,Y,Z Vertex 1 {m}
  0, 0, 0,                                !- X,Y,Z Vertex 2 {m}
  3, 3, 0,                                !- X,Y,Z Vertex 3 {m}
  11.142135623731, 3, 0;                  !- X,Y,Z Vertex 4 {m}

OS:Surface,
  {4f38abae-94e5-453f-ba16-bc929f002623}, !- Handle
  Surface 20,                             !- Name
  Wall,                                   !- Surface Type
  ,                                       !- Construction Name
  {fd972385-dca5-41f2-80b2-03ff179d1e55}, !- Space Name
  Outdoors,                               !- Outside Boundary Condition
  ,                                       !- Outside Boundary Condition Object
  SunExposed,                             !- Sun Exposure
  WindExposed,                            !- Wind Exposure
  ,                                       !- View Factor to Ground
  ,                                       !- Number of Vertices
  0, 0, 4,                                !- X,Y,Z Vertex 1 {m}
  0, 0, 0,                                !- X,Y,Z Vertex 2 {m}
  14.142135623731, 0, 0,                  !- X,Y,Z Vertex 3 {m}
  14.142135623731, 0, 4;                  !- X,Y,Z Vertex 4 {m}

OS:Surface,
  {e3e686b6-c29c-4a86-8df3-70ec8cfbc0ca}, !- Handle
  Surface 21,                             !- Name
  Wall,                                   !- Surface Type
  ,                                       !- Construction Name
  {fd972385-dca5-41f2-80b2-03ff179d1e55}, !- Space Name
  Surface,                                !- Outside Boundary Condition
  {9e87ec15-21c8-4a5d-8d29-434449770d9b}, !- Outside Boundary Condition Object
  NoSun,                                  !- Sun Exposure
  NoWind,                                 !- Wind Exposure
  ,                                       !- View Factor to Ground
  ,                                       !- Number of Vertices
  3, 3, 4,                                !- X,Y,Z Vertex 1 {m}
  3, 3, 0,                                !- X,Y,Z Vertex 2 {m}
  0, 0, 0,                                !- X,Y,Z Vertex 3 {m}
  0, 0, 4;                                !- X,Y,Z Vertex 4 {m}

OS:Surface,
  {7c2140d2-ff7e-41b2-912d-6017857d80e4}, !- Handle
  Surface 22,                             !- Name
  Wall,                                   !- Surface Type
  ,                                       !- Construction Name
  {fd972385-dca5-41f2-80b2-03ff179d1e55}, !- Space Name
  Surface,                                !- Outside Boundary Condition
  {6dc5bb5b-9f54-4ca2-af8d-e7304f87b64d}, !- Outside Boundary Condition Object
  NoSun,                                  !- Sun Exposure
  NoWind,                                 !- Wind Exposure
  ,                                       !- View Factor to Ground
  ,                                       !- Number of Vertices
  11.142135623731, 3, 4,                  !- X,Y,Z Vertex 1 {m}
  11.142135623731, 3, 0,                  !- X,Y,Z Vertex 2 {m}
  3, 3, 0,                                !- X,Y,Z Vertex 3 {m}
  3, 3, 4;                                !- X,Y,Z Vertex 4 {m}

OS:Surface,
  {8b8074b0-6198-4691-b1c5-7acb4e5042ac}, !- Handle
  Surface 23,                             !- Name
  Wall,                                   !- Surface Type
  ,                                       !- Construction Name
  {fd972385-dca5-41f2-80b2-03ff179d1e55}, !- Space Name
  Surface,                                !- Outside Boundary Condition
  {2e86659e-ef14-4daa-acf1-238828924830}, !- Outside Boundary Condition Object
  NoSun,                                  !- Sun Exposure
  NoWind,                                 !- Wind Exposure
  ,                                       !- View Factor to Ground
  ,                                       !- Number of Vertices
  14.142135623731, 0, 4,                  !- X,Y,Z Vertex 1 {m}
  14.142135623731, 0, 0,                  !- X,Y,Z Vertex 2 {m}
  11.142135623731, 3, 0,                  !- X,Y,Z Vertex 3 {m}
  11.142135623731, 3, 4;                  !- X,Y,Z Vertex 4 {m}

OS:Surface,
  {21b040a5-715c-44c5-831c-d67bb68253b9}, !- Handle
  Surface 24,                             !- Name
  RoofCeiling,                            !- Surface Type
  ,                                       !- Construction Name
  {fd972385-dca5-41f2-80b2-03ff179d1e55}, !- Space Name
  Outdoors,                               !- Outside Boundary Condition
  ,                                       !- Outside Boundary Condition Object
  SunExposed,                             !- Sun Exposure
  WindExposed,                            !- Wind Exposure
  ,                                       !- View Factor to Ground
  ,                                       !- Number of Vertices
  11.142135623731, 3, 4,                  !- X,Y,Z Vertex 1 {m}
  3, 3, 4,                                !- X,Y,Z Vertex 2 {m}
  0, 0, 4,                                !- X,Y,Z Vertex 3 {m}
  14.142135623731, 0, 4;                  !- X,Y,Z Vertex 4 {m}

OS:Space,
  {8f1a54b8-4d2c-4cfd-8eaa-45cfd7cbf7e3}, !- Handle
  Story 1 Core Space,                     !- Name
  ,                                       !- Space Type Name
  ,                                       !- Default Construction Set Name
  ,                                       !- Default Schedule Set Name
  -0,                                     !- Direction of Relative North {deg}
  3,                                      !- X Origin {m}
  3,                                      !- Y Origin {m}
  0,                                      !- Z Origin {m}
  {86163c02-2d46-48e2-8085-a19c707c8650}, !- Building Story Name
  {eecb924a-4cdf-431b-8580-511b59076e81}; !- Thermal Zone Name

OS:Surface,
  {2bb1b909-a041-4f25-bba1-b2024cb59cc5}, !- Handle
  Surface 25,                             !- Name
  Floor,                                  !- Surface Type
  ,                                       !- Construction Name
  {8f1a54b8-4d2c-4cfd-8eaa-45cfd7cbf7e3}, !- Space Name
  Ground,                                 !- Outside Boundary Condition
  ,                                       !- Outside Boundary Condition Object
  NoSun,                                  !- Sun Exposure
  NoWind,                                 !- Wind Exposure
  ,                                       !- View Factor to Ground
  ,                                       !- Number of Vertices
  0, 0, 0,                                !- X,Y,Z Vertex 1 {m}
  0, 8.142135623731, 0,                   !- X,Y,Z Vertex 2 {m}
  8.142135623731, 8.142135623731, 0,      !- X,Y,Z Vertex 3 {m}
  8.142135623731, 0, 0;                   !- X,Y,Z Vertex 4 {m}

OS:Surface,
  {81f4e386-35dd-48e9-97b0-2d7c68d25724}, !- Handle
  Surface 26,                             !- Name
  Wall,                                   !- Surface Type
  ,                                       !- Construction Name
  {8f1a54b8-4d2c-4cfd-8eaa-45cfd7cbf7e3}, !- Space Name
  Surface,                                !- Outside Boundary Condition
  {b1538b95-f6b3-4aa9-8c83-2b8275bf39a1}, !- Outside Boundary Condition Object
  NoSun,                                  !- Sun Exposure
  NoWind,                                 !- Wind Exposure
  ,                                       !- View Factor to Ground
  ,                                       !- Number of Vertices
  0, 8.142135623731, 4,                   !- X,Y,Z Vertex 1 {m}
  0, 8.142135623731, 0,                   !- X,Y,Z Vertex 2 {m}
  0, 0, 0,                                !- X,Y,Z Vertex 3 {m}
  0, 0, 4;                                !- X,Y,Z Vertex 4 {m}

OS:Surface,
  {40de72b2-4b41-4be0-9fef-6c23dbaf7b96}, !- Handle
  Surface 27,                             !- Name
  Wall,                                   !- Surface Type
  ,                                       !- Construction Name
  {8f1a54b8-4d2c-4cfd-8eaa-45cfd7cbf7e3}, !- Space Name
  Surface,                                !- Outside Boundary Condition
  {615efb54-035d-4959-a833-f10b22161ffc}, !- Outside Boundary Condition Object
  NoSun,                                  !- Sun Exposure
  NoWind,                                 !- Wind Exposure
  ,                                       !- View Factor to Ground
  ,                                       !- Number of Vertices
  8.142135623731, 8.142135623731, 4,      !- X,Y,Z Vertex 1 {m}
  8.142135623731, 8.142135623731, 0,      !- X,Y,Z Vertex 2 {m}
  0, 8.142135623731, 0,                   !- X,Y,Z Vertex 3 {m}
  0, 8.142135623731, 4;                   !- X,Y,Z Vertex 4 {m}

OS:Surface,
  {8278a390-c183-4c93-9987-abb52446c528}, !- Handle
  Surface 28,                             !- Name
  Wall,                                   !- Surface Type
  ,                                       !- Construction Name
  {8f1a54b8-4d2c-4cfd-8eaa-45cfd7cbf7e3}, !- Space Name