
OS:Version,
  {6d50d6df-8264-40b8-85b4-d0b5a8298228}, !- Handle
  0.10.0;                                 !- Version Identifier

OS:BuildingStory,
  {1b6e9097-40ee-4b79-9800-1db3d14dcb5b}, !- Handle
  Story 1,                                !- Name
  0,                                      !- Nominal Z Coordinate {m}
  4,                                      !- Nominal Floor to Floor Height {m}
  ,                                       !- Default Construction Set Name
  ,                                       !- Default Schedule Set Name
  ;                                       !- Group Rendering Name

OS:Space,
  {c5d319ff-e257-448b-8324-4dbf026fd792}, !- Handle
  Story 1 West Perimeter Space,           !- Name
  ,                                       !- Space Type Name
  ,                                       !- Default Construction Set Name
  ,                                       !- Default Schedule Set Name
  -0,                                     !- Direction of Relative North {deg}
  0,                                      !- X Origin {m}
  0,                                      !- Y Origin {m}
  0,                                      !- Z Origin {m}
  {1b6e9097-40ee-4b79-9800-1db3d14dcb5b}, !- Building Story Name
  {1980c087-56fe-44c1-bb1a-10f9d32ce613}; !- Thermal Zone Name

OS:Surface,
  {c3baca49-fd98-43b8-ae57-dd46b67a32c8}, !- Handle
  Surface 1,                              !- Name
  Floor,                                  !- Surface Type
  ,                                       !- Construction Name
  {c5d319ff-e257-448b-8324-4dbf026fd792}, !- Space Name
  Ground,                                 !- Outside Boundary Condition
  ,                                       !- Outside Boundary Condition Object
  NoSun,                                  !- Sun Exposure
  NoWind,                                 !- Wind Exposure
  ,                                       !- View Factor to Ground
  ,                                       !- Number of Vertices
  0, 0, 0,                                !- X,Y,Z Vertex 1 {m}
  0, 14.142135623731, 0,                  !- X,Y,Z Vertex 2 {m}
  3, 11.142135623731, 0,                  !- X,Y,Z Vertex 3 {m}
  3, 3, 0;                                !- X,Y,Z Vertex 4 {m}

OS:Surface,
  {582cc041-2b58-4cdb-a6da-4f62b3870887}, !- Handle
  Surface 2,                              !- Name
  Wall,                                   !- Surface Type
  ,                                       !- Construction Name
  {c5d319ff-e257-448b-8324-4dbf026fd792}, !- Space Name
  Outdoors,                               !- Outside Boundary Condition
  ,                                       !- Outside Boundary Condition Object
  SunExposed,                             !- Sun Exposure
  WindExposed,                            !- Wind Exposure
  ,                                       !- View Factor to Ground
  ,                                       !- Number of Vertices
  0, 14.142135623731, 4,                  !- X,Y,Z Vertex 1 {m}
  0, 14.142135623731, 0,                  !- X,Y,Z Vertex 2 {m}
  0, 0, 0,                                !- X,Y,Z Vertex 3 {m}
  0, 0, 4;                                !- X,Y,Z Vertex 4 {m}

OS:Surface,
  {ee25d8cb-d3e1-4bc4-a412-136790c1dd6a}, !- Handle
  Surface 3,                              !- Name
  Wall,                                   !- Surface Type
  ,                                       !- Construction Name
  {c5d319ff-e257-448b-8324-4dbf026fd792}, !- Space Name
  Surface,                                !- Outside Boundary Condition
  {828bb8ef-9b3e-47b4-a4ae-896ca834c60b}, !- Outside Boundary Condition Object
  NoSun,                                  !- Sun Exposure
  NoWind,                                 !- Wind Exposure
  ,                                       !- View Factor to Ground
  ,                                       !- Number of Vertices
  3, 11.142135623731, 4,                  !- X,Y,Z Vertex 1 {m}
  3, 11.142135623731, 0,                  !- X,Y,Z Vertex 2 {m}
  0, 14.142135623731, 0,                  !- X,Y,Z Vertex 3 {m}
  0, 14.142135623731, 4;                  !- X,Y,Z Vertex 4 {m}

OS:Surface,
  {e277fbee-f8ca-47d1-b982-0d1234c12f64}, !- Handle
  Surface 4,                              !- Name
  Wall,                                   !- Surface Type
  ,                                       !- Construction Name
  {c5d319ff-e257-448b-8324-4dbf026fd792}, !- Space Name
  Surface,                                !- Outside Boundary Condition
  {070f929e-0972-47f7-871a-58c6c1565ac8}, !- Outside Boundary Condition Object
  NoSun,                                  !- Sun Exposure
  NoWind,                                 !- Wind Exposure
  ,                                       !- View Factor to Ground
  ,                                       !- Number of Vertices
  3, 3, 4,                                !- X,Y,Z Vertex 1 {m}
  3, 3, 0,                                !- X,Y,Z Vertex 2 {m}
  3, 11.142135623731, 0,                  !- X,Y,Z Vertex 3 {m}
  3, 11.142135623731, 4;                  !- X,Y,Z Vertex 4 {m}

OS:Surface,
  {83606d3b-59e8-41c9-a48e-54588aa6a3f7}, !- Handle
  Surface 5,                              !- Name
  Wall,                                   !- Surface Type
  ,                                       !- Construction Name
  {c5d319ff-e257-448b-8324-4dbf026fd792}, !- Space Name
  Surface,                                !- Outside Boundary Condition
  {fa43550f-2094-492f-b70a-91c477426f1e}, !- Outside Boundary Condition Object
  NoSun,                                  !- Sun Exposure
  NoWind,                                 !- Wind Exposure
  ,                                       !- View Factor to Ground
  ,                                       !- Number of Vertices
  0, 0, 4,                                !- X,Y,Z Vertex 1 {m}
  0, 0, 0,                                !- X,Y,Z Vertex 2 {m}
  3, 3, 0,                                !- X,Y,Z Vertex 3 {m}
  3, 3, 4;                                !- X,Y,Z Vertex 4 {m}

OS:Surface,
  {2778f1f4-2e7b-4379-ac1c-fb02bb602117}, !- Handle
  Surface 6,                              !- Name
  RoofCeiling,                            !- Surface Type
  ,                                       !- Construction Name
  {c5d319ff-e257-448b-8324-4dbf026fd792}, !- Space Name
  Surface,                                !- Outside Boundary Condition
  {798d83a4-031f-41e2-b74e-68fe5de55a7b}, !- Outside Boundary Condition Object
  NoSun,                                  !- Sun Exposure
  NoWind,                                 !- Wind Exposure
  ,                                       !- View Factor to Ground
  ,                                       !- Number of Vertices
  3, 3, 4,                                !- X,Y,Z Vertex 1 {m}
  3, 11.142135623731, 4,                  !- X,Y,Z Vertex 2 {m}
  0, 14.142135623731, 4,                  !- X,Y,Z Vertex 3 {m}
  0, 0, 4;                                !- X,Y,Z Vertex 4 {m}

OS:Space,
  {4c355cb8-ca58-43cc-98fb-478aee404db1}, !- Handle
  Story 1 North Perimeter Space,          !- Name
  ,                                       !- Space Type Name
  ,                                       !- Default Construction Set Name
  ,                                       !- Default Schedule Set Name
  -0,                                     !- Direction of Relative North {deg}
  3,                                      !- X Origin {m}
  11.142135623731,                        !- Y Origin {m}
  0,                                      !- Z Origin {m}
  {1b6e9097-40ee-4b79-9800-1db3d14dcb5b}, !- Building Story Name
  {8a12f2d0-7c32-4f52-9c0e-835bc16ed441}; !- Thermal Zone Name

OS:Surface,
  {f155360a-7a39-4039-8cc3-10973de5858d}, !- Handle
  Surface 7,                              !- Name
  Floor,                                  !- Surface Type
  ,                                       !- Construction Name
  {4c355cb8-ca58-43cc-98fb-478aee404db1}, !- Space Name
  Ground,                                 !- Outside Boundary Condition
  ,                                       !- Outside Boundary Condition Object
  NoSun,                                  !- Sun Exposure
  NoWind,                                 !- Wind Exposure
  ,                                       !- View Factor to Ground
  ,                                       !- Number of Vertices
  -3, 3.00000000000005, 0,                !- X,Y,Z Vertex 1 {m}
  11.142135623731, 3.00000000000005, 0,   !- X,Y,Z Vertex 2 {m}
  8.142135623731, 4.9737991503207e-14, 0, !- X,Y,Z Vertex 3 {m}
  0, 4.9737991503207e-14, 0;              !- X,Y,Z Vertex 4 {m}

OS:Surface,
  {eedb5ec6-4370-40ac-9ea0-82c5b44ae5a2}, !- Handle
  Surface 8,                              !- Name
  Wall,                                   !- Surface Type
  ,                                       !- Construction Name
  {4c355cb8-ca58-43cc-98fb-478aee404db1}, !- Space Name
  Outdoors,                               !- Outside Boundary Condition
  ,                                       !- Outside Boundary Condition Object
  SunExposed,                             !- Sun Exposure
  WindExposed,                            !- Wind Exposure
  ,                                       !- View Factor to Ground
  ,                                       !- Number of Vertices
  11.142135623731, 3.00000000000005, 4,   !- X,Y,Z Vertex 1 {m}
  11.142135623731, 3.00000000000005, 0,   !- X,Y,Z Vertex 2 {m}
  -3, 3.00000000000005, 0,                !- X,Y,Z Vertex 3 {m}
  -3, 3.00000000000005, 4;                !- X,Y,Z Vertex 4 {m}

OS:Surface,
  {89bd73d8-b084-4483-b9ef-f8a120ae187d}, !- Handle
  Surface 9,                              !- Name
  Wall,                                   !- Surface Type
  ,                                       !- Construction Name
  {4c355cb8-ca58-43cc-98fb-478aee404db1}, !- Space Name
  Surface,                                !- Outside Boundary Condition
  {dc2d729f-a523-45ba-a0c0-ed17b8c63aed}, !- Outside Boundary Condition Object
  NoSun,                                  !- Sun Exposure
  NoWind,                                 !- Wind Exposure
  ,                                       !- View Factor to Ground
  ,                                       !- Number of Vertices
  8.142135623731, 4.9737991503207e-14, 4, !- X,Y,Z Vertex 1 {m}
  8.142135623731, 4.9737991503207e-14, 0, !- X,Y,Z Vertex 2 {m}
  11.142135623731, 3.00000000000005, 0,   !- X,Y,Z Vertex 3 {m}
  11.142135623731, 3.00000000000005, 4;   !- X,Y,Z Vertex 4 {m}

OS:Surface,
  {0f3e5a59-f018-4582-bdd2-8481bac05f18}, !- Handle
  Surface 10,                             !- Name
  Wall,                                   !- Surface Type
  ,                                       !- Construction Name
  {4c355cb8-ca58-43cc-98fb-478aee404db1}, !- Space Name
  Surface,                                !- Outside Boundary Condition
  {6bb04a2c-fc47-4585-b286-cc8349f5248e}, !- Outside Boundary Condition Object
  NoSun,                                  !- Sun Exposure
  NoWind,                                 !- Wind Exposure
  ,                                       !- View Factor to Ground
  ,                                       !- Number of Vertices
  0, 4.9737991503207e-14, 4,              !- X,Y,Z Vertex 1 {m}
  0, 4.9737991503207e-14, 0,              !- X,Y,Z Vertex 2 {m}
  8.142135623731, 4.9737991503207e-14, 0, !- X,Y,Z Vertex 3 {m}
  8.142135623731, 4.9737991503207e-14, 4; !- X,Y,Z Vertex 4 {m}

OS:Surface,
  {828bb8ef-9b3e-47b4-a4ae-896ca834c60b}, !- Handle
  Surface 11,                             !- Name
  Wall,                                   !- Surface Type
  ,                                       !- Construction Name
  {4c355cb8-ca58-43cc-98fb-478aee404db1}, !- Space Name
  Surface,                                !- Outside Boundary Condition
  {ee25d8cb-d3e1-4bc4-a412-136790c1dd6a}, !- Outside Boundary Condition Object
  NoSun,                                  !- Sun Exposure
  NoWind,                                 !- Wind Exposure
  ,                                       !- View Factor to Ground
  ,                                       !- Number of Vertices
  -3, 3.00000000000005, 4,                !- X,Y,Z Vertex 1 {m}
  -3, 3.00000000000005, 0,                !- X,Y,Z Vertex 2 {m}
  0, 4.9737991503207e-14, 0,              !- X,Y,Z Vertex 3 {m}
  0, 4.9737991503207e-14, 4;              !- X,Y,Z Vertex 4 {m}

OS:Surface,
  {8eca0c60-e0a3-4908-8854-b4b18e26959d}, !- Handle
  Surface 12,                             !- Name
  RoofCeiling,                            !- Surface Type
  ,                                       !- Construction Name
  {4c355cb8-ca58-43cc-98fb-478aee404db1}, !- Space Name
  Surface,                                !- Outside Boundary Condition
  {7adfef62-535c-4aa2-905a-29516d642768}, !- Outside Boundary Condition Object
  NoSun,                                  !- Sun Exposure
  NoWind,                                 !- Wind Exposure
  ,                                       !- View Factor to Ground
  ,                                       !- Number of Vertices
  0, 4.9737991503207e-14, 4,              !- X,Y,Z Vertex 1 {m}
  8.142135623731, 4.9737991503207e-14, 4, !- X,Y,Z Vertex 2 {m}
  11.142135623731, 3.00000000000005, 4,   !- X,Y,Z Vertex 3 {m}
  -3, 3.00000000000005, 4;                !- X,Y,Z Vertex 4 {m}

OS:Space,
  {d4481ef7-6867-4db2-849b-c310bb9f06db}, !- Handle
  Story 1 East Perimeter Space,           !- Name
  ,                                       !- Space Type Name
  ,                                       !- Default Construction Set Name
  ,                                       !- Default Schedule Set Name
  -0,                                     !- Direction of Relative North {deg}
  11.142135623731,                        !- X Origin {m}
  3,                                      !- Y Origin {m}
  0,                                      !- Z Origin {m}
  {1b6e9097-40ee-4b79-9800-1db3d14dcb5b}, !- Building Story Name
  {8f592f81-4075-4f22-9b3e-ffdb1856ffe3}; !- Thermal Zone Name

OS:Surface,
  {32e350af-698b-437f-9f11-aad393f7ea0f}, !- Handle
  Surface 13,                             !- Name
  Floor,                                  !- Surface Type
  ,                                       !- Construction Name
  {d4481ef7-6867-4db2-849b-c310bb9f06db}, !- Space Name
  Ground,                                 !- Outside Boundary Condition
  ,                                       !- Outside Boundary Condition Object
  NoSun,                                  !- Sun Exposure
  NoWind,                                 !- Wind Exposure
  ,                                       !- View Factor to Ground
  ,                                       !- Number of Vertices
  3.00000000000005, 11.142135623731, 0,   !- X,Y,Z Vertex 1 {m}
  3.00000000000005, -3, 0,                !- X,Y,Z Vertex 2 {m}
  4.9737991503207e-14, 0, 0,              !- X,Y,Z Vertex 3 {m}
  4.9737991503207e-14, 8.142135623731, 0; !- X,Y,Z Vertex 4 {m}

OS:Surface,
  {cfa7c077-2b7f-4c2b-9c22-9b7a6900c810}, !- Handle
  Surface 14,                             !- Name
  Wall,                                   !- Surface Type
  ,                                       !- Construction Name
  {d4481ef7-6867-4db2-849b-c310bb9f06db}, !- Space Name
  Outdoors,                               !- Outside Boundary Condition
  ,                                       !- Outside Boundary Condition Object
  SunExposed,                             !- Sun Exposure
  WindExposed,                            !- Wind Exposure
  ,                                       !- View Factor to Ground
  ,                                       !- Number of Vertices
  3.00000000000005, -3, 4,                !- X,Y,Z Vertex 1 {m}
  3.00000000000005, -3, 0,                !- X,Y,Z Vertex 2 {m}
  3.00000000000005, 11.142135623731, 0,   !- X,Y,Z Vertex 3 {m}
  3.00000000000005, 11.142135623731, 4;   !- X,Y,Z Vertex 4 {m}

OS:Surface,
  {870cb049-4418-43a1-acad-60b4253fa226}, !- Handle
  Surface 15,                             !- Name
  Wall,                                   !- Surface Type
  ,                                       !- Construction Name
  {d4481ef7-6867-4db2-849b-c310bb9f06db}, !- Space Name
  Surface,                                !- Outside Boundary Condition
  {5c3b36d1-509a-428d-876f-cbdae749d8a6}, !- Outside Boundary Condition Object
  NoSun,                                  !- Sun Exposure
  NoWind,                                 !- Wind Exposure
  ,                                       !- View Factor to Ground
  ,                                       !- Number of Vertices
  4.9737991503207e-14, 0, 4,              !- X,Y,Z Vertex 1 {m}
  4.9737991503207e-14, 0, 0,              !- X,Y,Z Vertex 2 {m}
  3.00000000000005, -3, 0,                !- X,Y,Z Vertex 3 {m}
  3.00000000000005, -3, 4;                !- X,Y,Z Vertex 4 {m}

OS:Surface,
  {c45a2d16-97b7-4890-a1c3-db2854616350}, !- Handle
  Surface 16,                             !- Name
  Wall,                                   !- Surface Type
  ,                                       !- Construction Name
  {d4481ef7-6867-4db2-849b-c310bb9f06db}, !- Space Name
  Surface,                                !- Outside Boundary Condition
  {356c22d8-49bc-4120-9a23-8fd002e40fe4}, !- Outside Boundary Condition Object
  NoSun,                                  !- Sun Exposure
  NoWind,                                 !- Wind Exposure
  ,                                       !- View Factor to Ground
  ,                                       !- Number of Vertices
  4.9737991503207e-14, 8.142135623731, 4, !- X,Y,Z Vertex 1 {m}
  4.9737991503207e-14, 8.142135623731, 0, !- X,Y,Z Vertex 2 {m}
  4.9737991503207e-14, 0, 0,              !- X,Y,Z Vertex 3 {m}
  4.9737991503207e-14, 0, 4;              !- X,Y,Z Vertex 4 {m}

OS:Surface,
  {dc2d729f-a523-45ba-a0c0-ed17b8c63aed}, !- Handle
  Surface 17,                             !- Name
  Wall,                                   !- Surface Type
  ,                                       !- Construction Name
  {d4481ef7-6867-4db2-849b-c310bb9f06db}, !- Space Name
  Surface,                                !- Outside Boundary Condition
  {89bd73d8-b084-4483-b9ef-f8a120ae187d}, !- Outside Boundary Condition Object
  NoSun,                                  !- Sun Exposure
  NoWind,                                 !- Wind Exposure
  ,                                       !- View Factor to Ground
  ,                                       !- Number of Vertices
  3.00000000000005, 11.142135623731, 4,   !- X,Y,Z Vertex 1 {m}
  3.00000000000005, 11.142135623731, 0,   !- X,Y,Z Vertex 2 {m}
  4.9737991503207e-14, 8.142135623731, 0, !- X,Y,Z Vertex 3 {m}
  4.9737991503207e-14, 8.142135623731, 4; !- X,Y,Z Vertex 4 {m}

OS:Surface,
  {72766bd6-32d3-4137-aeac-cfcfdd6ee2d1}, !- Handle
  Surface 18,                             !- Name
  RoofCeiling,                            !- Surface Type
  ,                                       !- Construction Name
  {d4481ef7-6867-4db2-849b-c310bb9f06db}, !- Space Name
  Surface,                                !- Outside Boundary Condition
  {0b521570-93b8-446d-9c79-a7e57a45249d}, !- Outside Boundary Condition Object
  NoSun,                                  !- Sun Exposure
  NoWind,                                 !- Wind Exposure
  ,                                       !- View Factor to Ground
  ,                                       !- Number of Vertices
  4.9737991503207e-14, 8.142135623731, 4, !- X,Y,Z Vertex 1 {m}
  4.9737991503207e-14, 0, 4,              !- X,Y,Z Vertex 2 {m}
  3.00000000000005, -3, 4,                !- X,Y,Z Vertex 3 {m}
  3.00000000000005, 11.142135623731, 4;   !- X,Y,Z Vertex 4 {m}

OS:Space,
  {1f7f6382-9c7a-45c4-beb7-d90dd60dcb5d}, !- Handle
  Story 1 South Perimeter Space,          !- Name
  ,                                       !- Space Type Name
  ,                                       !- Default Construction Set Name
  ,                                       !- Default Schedule Set Name
  -0,                                     !- Direction of Relative North {deg}
  0,                                      !- X Origin {m}
  0,                                      !- Y Origin {m}
  0,                                      !- Z Origin {m}
  {1b6e9097-40ee-4b79-9800-1db3d14dcb5b}, !- Building Story Name
  {bf509707-7041-4007-97b5-d679a13d7a62}; !- Thermal Zone Name

OS:Surface,
  {a425da02-e927-4072-945b-add5d04eb616}, !- Handle
  Surface 19,                             !- Name
  Floor,                                  !- Surface Type
  ,                                       !- Construction Name
  {1f7f6382-9c7a-45c4-beb7-d90dd60dcb5d}, !- Space Name
  Ground,                                 !- Outside Boundary Condition
  ,                                       !- Outside Boundary Condition Object
  NoSun,                                  !- Sun Exposure
  NoWind,                                 !- Wind Exposure
  ,                                       !- View Factor to Ground
  ,                                       !- Number of Vertices
  14.142135623731, 0, 0,                  !- X,Y,Z Vertex 1 {m}
  0, 0, 0,                                !- X,Y,Z Vertex 2 {m}
  3, 3, 0,                                !- X,Y,Z Vertex 3 {m}
  11.142135623731, 3, 0;                  !- X,Y,Z Vertex 4 {m}

OS:Surface,
  {c518b798-76d9-421a-827e-4147aee8bf76}, !- Handle
  Surface 20,                             !- Name
  Wall,                                   !- Surface Type
  ,                                       !- Construction Name
  {1f7f6382-9c7a-45c4-beb7-d90dd60dcb5d}, !- Space Name
  Outdoors,                               !- Outside Boundary Condition
  ,                                       !- Outside Boundary Condition Object
  SunExposed,                             !- Sun Exposure
  WindExposed,                            !- Wind Exposure
  ,                                       !- View Factor to Ground
  ,                                       !- Number of Vertices
  0, 0, 4,                                !- X,Y,Z Vertex 1 {m}
  0, 0, 0,                                !- X,Y,Z Vertex 2 {m}
  14.142135623731, 0, 0,                  !- X,Y,Z Vertex 3 {m}
  14.142135623731, 0, 4;                  !- X,Y,Z Vertex 4 {m}

OS:Surface,
  {fa43550f-2094-492f-b70a-91c477426f1e}, !- Handle
  Surface 21,                             !- Name
  Wall,                                   !- Surface Type
  ,                                       !- Construction Name
  {1f7f6382-9c7a-45c4-beb7-d90dd60dcb5d}, !- Space Name
  Surface,                                !- Outside Boundary Condition
  {83606d3b-59e8-41c9-a48e-54588aa6a3f7}, !- Outside Boundary Condition Object
  NoSun,                                  !- Sun Exposure
  NoWind,                                 !- Wind Exposure
  ,                                       !- View Factor to Ground
  ,                                       !- Number of Vertices
  3, 3, 4,                                !- X,Y,Z Vertex 1 {m}
  3, 3, 0,                                !- X,Y,Z Vertex 2 {m}
  0, 0, 0,                                !- X,Y,Z Vertex 3 {m}
  0, 0, 4;                                !- X,Y,Z Vertex 4 {m}

OS:Surface,
  {d33496ea-2909-429f-890e-1ba8bd8aa0c7}, !- Handle
  Surface 22,                             !- Name
  Wall,                                   !- Surface Type
  ,                                       !- Construction Name
  {1f7f6382-9c7a-45c4-beb7-d90dd60dcb5d}, !- Space Name
  Surface,                                !- Outside Boundary Condition
  {496c44d8-a42c-44ef-b13a-e1ac2d05b10b}, !- Outside Boundary Condition Object
  NoSun,                                  !- Sun Exposure
  NoWind,                                 !- Wind Exposure
  ,                                       !- View Factor to Ground
  ,                                       !- Number of Vertices
  11.142135623731, 3, 4,                  !- X,Y,Z Vertex 1 {m}
  11.142135623731, 3, 0,                  !- X,Y,Z Vertex 2 {m}
  3, 3, 0,                                !- X,Y,Z Vertex 3 {m}
  3, 3, 4;                                !- X,Y,Z Vertex 4 {m}

OS:Surface,
  {5c3b36d1-509a-428d-876f-cbdae749d8a6}, !- Handle
  Surface 23,                             !- Name
  Wall,                                   !- Surface Type
  ,                                       !- Construction Name
  {1f7f6382-9c7a-45c4-beb7-d90dd60dcb5d}, !- Space Name
  Surface,                                !- Outside Boundary Condition
  {870cb049-4418-43a1-acad-60b4253fa226}, !- Outside Boundary Condition Object
  NoSun,                                  !- Sun Exposure
  NoWind,                                 !- Wind Exposure
  ,                                       !- View Factor to Ground
  ,                                       !- Number of Vertices
  14.142135623731, 0, 4,                  !- X,Y,Z Vertex 1 {m}
  14.142135623731, 0, 0,                  !- X,Y,Z Vertex 2 {m}
  11.142135623731, 3, 0,                  !- X,Y,Z Vertex 3 {m}
  11.142135623731, 3, 4;                  !- X,Y,Z Vertex 4 {m}

OS:Surface,
  {2f57c88b-7bc8-423c-8c58-1531e1a64808}, !- Handle
  Surface 24,                             !- Name
  RoofCeiling,                            !- Surface Type
  ,                                       !- Construction Name
  {1f7f6382-9c7a-45c4-beb7-d90dd60dcb5d}, !- Space Name
  Surface,                                !- Outside Boundary Condition
  {074edabb-3142-4741-a106-7cc57f4c0605}, !- Outside Boundary Condition Object
  NoSun,                                  !- Sun Exposure
  NoWind,                                 !- Wind Exposure
  ,                                       !- View Factor to Ground
  ,                                       !- Number of Vertices
  11.142135623731, 3, 4,                  !- X,Y,Z Vertex 1 {m}
  3, 3, 4,                                !- X,Y,Z Vertex 2 {m}
  0, 0, 4,                                !- X,Y,Z Vertex 3 {m}
  14.142135623731, 0, 4;                  !- X,Y,Z Vertex 4 {m}

OS:Space,
  {bc2cbfc9-e7d7-4f33-b4fc-d7960fdc13fd}, !- Handle
  Story 1 Core Space,                     !- Name
  ,                                       !- Space Type Name
  ,                                       !- Default Construction Set Name
  ,                                       !- Default Schedule Set Name
  -0,                                     !- Direction of Relative North {deg}
  3,                                      !- X Origin {m}
  3,                                      !- Y Origin {m}
  0,                                      !- Z Origin {m}
  {1b6e9097-40ee-4b79-9800-1db3d14dcb5b}, !- Building Story Name
  {b4b41759-2a28-47e0-9e6f-4445076c1a6b}; !- Thermal Zone Name

OS:Surface,
  {04471335-9689-41dc-a2d2-5db132559291}, !- Handle
  Surface 25,                             !- Name
  Floor,                                  !- Surface Type
  ,                                       !- Construction Name
  {bc2cbfc9-e7d7-4f33-b4fc-d7960fdc13fd}, !- Space Name
  Ground,                                 !- Outside Boundary Condition
  ,                                       !- Outside Boundary Condition Object
  NoSun,                                  !- Sun Exposure
  NoWind,                                 !- Wind Exposure
  ,                                       !- View Factor to Ground
  ,                                       !- Number of Vertices
  0, 0, 0,                                !- X,Y,Z Vertex 1 {m}
  0, 8.142135623731, 0,                   !- X,Y,Z Vertex 2 {m}
  8.142135623731, 8.142135623731, 0,      !- X,Y,Z Vertex 3 {m}
  8.142135623731, 0, 0;                   !- X,Y,Z Vertex 4 {m}

OS:Surface,
  {070f929e-0972-47f7-871a-58c6c1565ac8}, !- Handle
  Surface 26,                             !- Name
  Wall,                                   !- Surface Type
  ,                                       !- Construction Name
  {bc2cbfc9-e7d7-4f33-b4fc-d7960fdc13fd}, !- Space Name
  Surface,                                !- Outside Boundary Condition
  {e277fbee-f8ca-47d1-b982-0d1234c12f64}, !- Outside Boundary Condition Object
  NoSun,                                  !- Sun Exposure
  NoWind,                                 !- Wind Exposure
  ,                                       !- View Factor to Ground
  ,                                       !- Number of Vertices
  0, 8.142135623731, 4,                   !- X,Y,Z Vertex 1 {m}
  0, 8.142135623731, 0,                   !- X,Y,Z Vertex 2 {m}
  0, 0, 0,                                !- X,Y,Z Vertex 3 {m}
  0, 0, 4;                                !- X,Y,Z Vertex 4 {m}

OS:Surface,
  {6bb04a2c-fc47-4585-b286-cc8349f5248e}, !- Handle
  Surface 27,                             !- Name
  Wall,                                   !- Surface Type
  ,                                       !- Construction Name
  {bc2cbfc9-e7d7-4f33-b4fc-d7960fdc13fd}, !- Space Name
  Surface,                                !- Outside Boundary Condition
  {0f3e5a59-f018-4582-bdd2-8481bac05f18}, !- Outside Boundary Condition Object
  NoSun,                                  !- Sun Exposure
  NoWind,                                 !- Wind Exposure
  ,                                       !- View Factor to Ground
  ,                                       !- Number of Vertices
  8.142135623731, 8.142135623731, 4,      !- X,Y,Z Vertex 1 {m}
  8.142135623731, 8.142135623731, 0,      !- X,Y,Z Vertex 2 {m}
  0, 8.142135623731, 0,                   !- X,Y,Z Vertex 3 {m}
  0, 8.142135623731, 4;                   !- X,Y,Z Vertex 4 {m}

OS:Surface,
  {356c22d8-49bc-4120-9a23-8fd002e40fe4}, !- Handle
  Surface 28,                             !- Name
  Wall,                                   !- Surface Type
  ,                                       !- Construction Name
  {bc2cbfc9-e7d7-4f33-b4fc-d7960fdc13fd}, !- Space Name