
OS:Version,
  {0b4f8f9b-a326-4255-9ddf-4eaadb74564c}, !- Handle
  0.10.0;                                 !- Version Identifier

OS:BuildingStory,
  {0bf96609-a8e6-4a02-b6cd-03702bd62190}, !- Handle
  Story 1,                                !- Name
  0,                                      !- Nominal Z Coordinate {m}
  3,                                      !- Nominal Floor to Floor Height {m}
  ,                                       !- Default Construction Set Name
  ,                                       !- Default Schedule Set Name
  ;                                       !- Group Rendering Name

OS:Space,
  {f7a4371f-1594-403c-9d15-d9d939cdc66d}, !- Handle
  Story 1 West Perimeter Space,           !- Name
  ,                                       !- Space Type Name
  ,                                       !- Default Construction Set Name
  ,                                       !- Default Schedule Set Name
  -0,                                     !- Direction of Relative North {deg}
  0,                                      !- X Origin {m}
  0,                                      !- Y Origin {m}
  0,                                      !- Z Origin {m}
  {0bf96609-a8e6-4a02-b6cd-03702bd62190}, !- Building Story Name
  {bed1450a-f2d4-4236-b3d5-d08fe1312236}; !- Thermal Zone Name

OS:Surface,
  {be08d4b8-290f-4e85-8e7b-2ae0523e7daf}, !- Handle
  Surface 1,                              !- Name
  Floor,                                  !- Surface Type
  ,                                       !- Construction Name
  {f7a4371f-1594-403c-9d15-d9d939cdc66d}, !- Space Name
  Ground,                                 !- Outside Boundary Condition
  ,                                       !- Outside Boundary Condition Object
  NoSun,                                  !- Sun Exposure
  NoWind,                                 !- Wind Exposure
  ,                                       !- View Factor to Ground
  ,                                       !- Number of Vertices
  0, 0, 0,                                !- X,Y,Z Vertex 1 {m}
  0, 20, 0,                               !- X,Y,Z Vertex 2 {m}
  3, 17, 0,                               !- X,Y,Z Vertex 3 {m}
  3, 3, 0;                                !- X,Y,Z Vertex 4 {m}

OS:Surface,
  {f27fff09-450a-4362-9253-44eda3c2d211}, !- Handle
  Surface 2,                              !- Name
  Wall,                                   !- Surface Type
  ,                                       !- Construction Name
  {f7a4371f-1594-403c-9d15-d9d939cdc66d}, !- Space Name
  Outdoors,                               !- Outside Boundary Condition
  ,                                       !- Outside Boundary Condition Object
  SunExposed,                             !- Sun Exposure
  WindExposed,                            !- Wind Exposure
  ,                                       !- View Factor to Ground
  ,                                       !- Number of Vertices
  0, 20, 3,                               !- X,Y,Z Vertex 1 {m}
  0, 20, 0,                               !- X,Y,Z Vertex 2 {m}
  0, 0, 0,                                !- X,Y,Z Vertex 3 {m}
  0, 0, 3;                                !- X,Y,Z Vertex 4 {m}

OS:Surface,
  {9ac092e0-b7fd-4f98-8f96-6c1a7ea4ec05}, !- Handle
  Surface 3,                              !- Name
  Wall,                                   !- Surface Type
  ,                                       !- Construction Name
  {f7a4371f-1594-403c-9d15-d9d939cdc66d}, !- Space Name
  Surface,                                !- Outside Boundary Condition
  {8e293677-5484-4dae-9cd4-78e7ca79c45b}, !- Outside Boundary Condition Object
  NoSun,                                  !- Sun Exposure
  NoWind,                                 !- Wind Exposure
  ,                                       !- View Factor to Ground
  ,                                       !- Number of Vertices
  3, 17, 3,                               !- X,Y,Z Vertex 1 {m}
  3, 17, 0,                               !- X,Y,Z Vertex 2 {m}
  0, 20, 0,                               !- X,Y,Z Vertex 3 {m}
  0, 20, 3;                               !- X,Y,Z Vertex 4 {m}

OS:Surface,
  {6c380889-07a4-45c2-bf75-b9f505654f1d}, !- Handle
  Surface 4,                              !- Name
  Wall,                                   !- Surface Type
  ,                                       !- Construction Name
  {f7a4371f-1594-403c-9d15-d9d939cdc66d}, !- Space Name
  Surface,                                !- Outside Boundary Condition
  {67fdba16-07d3-4684-b3a7-9fe130ba1993}, !- Outside Boundary Condition Object
  NoSun,                                  !- Sun Exposure
  NoWind,                                 !- Wind Exposure
  ,                                       !- View Factor to Ground
  ,                                       !- Number of Vertices
  3, 3, 3,                                !- X,Y,Z Vertex 1 {m}
  3, 3, 0,                                !- X,Y,Z Vertex 2 {m}
  3, 17, 0,                               !- X,Y,Z Vertex 3 {m}
  3, 17, 3;                               !- X,Y,Z Vertex 4 {m}

OS:Surface,
  {a2e7010a-98dc-4cd0-a9c0-21c1578af737}, !- Handle
  Surface 5,                              !- Name
  Wall,                                   !- Surface Type
  ,                                       !- Construction Name
  {f7a4371f-1594-403c-9d15-d9d939cdc66d}, !- Space Name
  Surface,                                !- Outside Boundary Condition
  {f6f8a5e5-7320-4ade-b0f2-c9d9714843e5}, !- Outside Boundary Condition Object
  NoSun,                                  !- Sun Exposure
  NoWind,                                 !- Wind Exposure
  ,                                       !- View Factor to Ground
  ,                                       !- Number of Vertices
  0, 0, 3,                                !- X,Y,Z Vertex 1 {m}
  0, 0, 0,                                !- X,Y,Z Vertex 2 {m}
  3, 3, 0,                                !- X,Y,Z Vertex 3 {m}
  3, 3, 3;                                !- X,Y,Z Vertex 4 {m}

OS:Surface,
  {f3c5069c-6232-4d35-a2c4-b5bd23073cca}, !- Handle
  Surface 6,                              !- Name
  RoofCeiling,                            !- Surface Type
  ,                                       !- Construction Name
  {f7a4371f-1594-403c-9d15-d9d939cdc66d}, !- Space Name
  Surface,                                !- Outside Boundary Condition
  {6eb141f7-c50f-4e10-86d0-e8733d6cecb0}, !- Outside Boundary Condition Object
  NoSun,                                  !- Sun Exposure
  NoWind,                                 !- Wind Exposure
  ,                                       !- View Factor to Ground
  ,                                       !- Number of Vertices
  3, 3, 3,                                !- X,Y,Z Vertex 1 {m}
  3, 17, 3,                               !- X,Y,Z Vertex 2 {m}
  0, 20, 3,                               !- X,Y,Z Vertex 3 {m}
  0, 0, 3;                                !- X,Y,Z Vertex 4 {m}

OS:Space,
  {accb23ad-a12d-482c-9923-309b4ba67891}, !- Handle
  Story 1 North Perimeter Space,          !- Name
  ,                                       !- Space Type Name
  ,                                       !- Default Construction Set Name
  ,                                       !- Default Schedule Set Name
  -0,                                     !- Direction of Relative North {deg}
  3,                                      !- X Origin {m}
  17,                                     !- Y Origin {m}
  0,                                      !- Z Origin {m}
  {0bf96609-a8e6-4a02-b6cd-03702bd62190}, !- Building Story Name
  {799d568a-b9d3-4b93-8dc3-9935dc32bdac}; !- Thermal Zone Name

OS:Surface,
  {8e95de59-4dde-43d5-8c72-53b1d8c5e435}, !- Handle
  Surface 7,                              !- Name
  Floor,                                  !- Surface Type
  ,                                       !- Construction Name
  {accb23ad-a12d-482c-9923-309b4ba67891}, !- Space Name
  Ground,                                 !- Outside Boundary Condition
  ,                                       !- Outside Boundary Condition Object
  NoSun,                                  !- Sun Exposure
  NoWind,                                 !- Wind Exposure
  ,                                       !- View Factor to Ground
  ,                                       !- Number of Vertices
  -3, 3, 0,                               !- X,Y,Z Vertex 1 {m}
  17, 3, 0,                               !- X,Y,Z Vertex 2 {m}
  14, 0, 0,                               !- X,Y,Z Vertex 3 {m}
  0, 0, 0;                                !- X,Y,Z Vertex 4 {m}

OS:Surface,
  {7563b692-5635-488b-b387-2bedf9e240ea}, !- Handle
  Surface 8,                              !- Name
  Wall,                                   !- Surface Type
  ,                                       !- Construction Name
  {accb23ad-a12d-482c-9923-309b4ba67891}, !- Space Name
  Outdoors,                               !- Outside Boundary Condition
  ,                                       !- Outside Boundary Condition Object
  SunExposed,                             !- Sun Exposure
  WindExposed,                            !- Wind Exposure
  ,                                       !- View Factor to Ground
  ,                                       !- Number of Vertices
  17, 3, 3,                               !- X,Y,Z Vertex 1 {m}
  17, 3, 0,                               !- X,Y,Z Vertex 2 {m}
  -3, 3, 0,                               !- X,Y,Z Vertex 3 {m}
  -3, 3, 3;                               !- X,Y,Z Vertex 4 {m}

OS:Surface,
  {3bfe2774-25b1-43a3-a5e5-46d5eea7497b}, !- Handle
  Surface 9,                              !- Name
  Wall,                                   !- Surface Type
  ,                                       !- Construction Name
  {accb23ad-a12d-482c-9923-309b4ba67891}, !- Space Name
  Surface,                                !- Outside Boundary Condition
  {9ce28ab3-260c-49fb-89f2-fbe1b5861ad0}, !- Outside Boundary Condition Object
  NoSun,                                  !- Sun Exposure
  NoWind,                                 !- Wind Exposure
  ,                                       !- View Factor to Ground
  ,                                       !- Number of Vertices
  14, 0, 3,                               !- X,Y,Z Vertex 1 {m}
  14, 0, 0,                               !- X,Y,Z Vertex 2 {m}
  17, 3, 0,                               !- X,Y,Z Vertex 3 {m}
  17, 3, 3;                               !- X,Y,Z Vertex 4 {m}

OS:Surface,
  {063cdb5c-e968-439d-9c98-6c99323f8937}, !- Handle
  Surface 10,                             !- Name
  Wall,                                   !- Surface Type
  ,                                       !- Construction Name
  {accb23ad-a12d-482c-9923-309b4ba67891}, !- Space Name
  Surface,                                !- Outside Boundary Condition
  {257a9dcd-7fca-41c0-9d89-638baccf5c48}, !- Outside Boundary Condition Object
  NoSun,                                  !- Sun Exposure
  NoWind,                                 !- Wind Exposure
  ,                                       !- View Factor to Ground
  ,                                       !- Number of Vertices
  0, 0, 3,                                !- X,Y,Z Vertex 1 {m}
  0, 0, 0,                                !- X,Y,Z Vertex 2 {m}
  14, 0, 0,                               !- X,Y,Z Vertex 3 {m}
  14, 0, 3;                               !- X,Y,Z Vertex 4 {m}

OS:Surface,
  {8e293677-5484-4dae-9cd4-78e7ca79c45b}, !- Handle
  Surface 11,                             !- Name
  Wall,                                   !- Surface Type
  ,                                       !- Construction Name
  {accb23ad-a12d-482c-9923-309b4ba67891}, !- Space Name
  Surface,                                !- Outside Boundary Condition
  {9ac092e0-b7fd-4f98-8f96-6c1a7ea4ec05}, !- Outside Boundary Condition Object
  NoSun,                                  !- Sun Exposure
  NoWind,                                 !- Wind Exposure
  ,                                       !- View Factor to Ground
  ,                                       !- Number of Vertices
  -3, 3, 3,                               !- X,Y,Z Vertex 1 {m}
  -3, 3, 0,                               !- X,Y,Z Vertex 2 {m}
  0, 0, 0,                                !- X,Y,Z Vertex 3 {m}
  0, 0, 3;                                !- X,Y,Z Vertex 4 {m}

OS:Surface,
  {54ca5d02-5b26-4cb7-8030-4de97b555c10}, !- Handle
  Surface 12,                             !- Name
  RoofCeiling,                            !- Surface Type
  ,                                       !- Construction Name
  {accb23ad-a12d-482c-9923-309b4ba67891}, !- Space Name
  Surface,                                !- Outside Boundary Condition
  {958f9310-86df-435c-8763-267fed013eee}, !- Outside Boundary Condition Object
  NoSun,                                  !- Sun Exposure
  NoWind,                                 !- Wind Exposure
  ,                                       !- View Factor to Ground
  ,                                       !- Number of Vertices
  0, 0, 3,                                !- X,Y,Z Vertex 1 {m}
  14, 0, 3,                               !- X,Y,Z Vertex 2 {m}
  17, 3, 3,                               !- X,Y,Z Vertex 3 {m}
  -3, 3, 3;                               !- X,Y,Z Vertex 4 {m}

OS:Space,
  {39ab0bf7-a40d-42b1-aa6a-777b31a22b36}, !- Handle
  Story 1 East Perimeter Space,           !- Name
  ,                                       !- Space Type Name
  ,                                       !- Default Construction Set Name
  ,                                       !- Default Schedule Set Name
  -0,                                     !- Direction of Relative North {deg}
  17,                                     !- X Origin {m}
  3,                                      !- Y Origin {m}
  0,                                      !- Z Origin {m}
  {0bf96609-a8e6-4a02-b6cd-03702bd62190}, !- Building Story Name
  {dd511784-ee3c-4564-a863-660df730041f}; !- Thermal Zone Name

OS:Surface,
  {f3bd2597-72a7-4023-a9f1-7aa128d47f92}, !- Handle
  Surface 13,                             !- Name
  Floor,                                  !- Surface Type
  ,                                       !- Construction Name
  {39ab0bf7-a40d-42b1-aa6a-777b31a22b36}, !- Space Name
  Ground,                                 !- Outside Boundary Condition
  ,                                       !- Outside Boundary Condition Object
  NoSun,                                  !- Sun Exposure
  NoWind,                                 !- Wind Exposure
  ,                                       !- View Factor to Ground
  ,                                       !- Number of Vertices
  3, 17, 0,                               !- X,Y,Z Vertex 1 {m}
  3, -3, 0,                               !- X,Y,Z Vertex 2 {m}
  0, 0, 0,                                !- X,Y,Z Vertex 3 {m}
  0, 14, 0;                               !- X,Y,Z Vertex 4 {m}

OS:Surface,
  {6ef2aa2f-3dfc-4031-b93e-cd3177f3e5c9}, !- Handle
  Surface 14,                             !- Name
  Wall,                                   !- Surface Type
  ,                                       !- Construction Name
  {39ab0bf7-a40d-42b1-aa6a-777b31a22b36}, !- Space Name
  Outdoors,                               !- Outside Boundary Condition
  ,                                       !- Outside Boundary Condition Object
  SunExposed,                             !- Sun Exposure
  WindExposed,                            !- Wind Exposure
  ,                                       !- View Factor to Ground
  ,                                       !- Number of Vertices
  3, -3, 3,                               !- X,Y,Z Vertex 1 {m}
  3, -3, 0,                               !- X,Y,Z Vertex 2 {m}
  3, 17, 0,                               !- X,Y,Z Vertex 3 {m}
  3, 17, 3;                               !- X,Y,Z Vertex 4 {m}

OS:Surface,
  {02b7617f-9e8e-4b6b-b237-4ab735a0183e}, !- Handle
  Surface 15,                             !- Name
  Wall,                                   !- Surface Type
  ,                                       !- Construction Name
  {39ab0bf7-a40d-42b1-aa6a-777b31a22b36}, !- Space Name
  Surface,                                !- Outside Boundary Condition
  {49a73271-f3c7-40e3-add7-371bdbaac230}, !- Outside Boundary Condition Object
  NoSun,                                  !- Sun Exposure
  NoWind,                                 !- Wind Exposure
  ,                                       !- View Factor to Ground
  ,                                       !- Number of Vertices
  0, 0, 3,                                !- X,Y,Z Vertex 1 {m}
  0, 0, 0,                                !- X,Y,Z Vertex 2 {m}
  3, -3, 0,                               !- X,Y,Z Vertex 3 {m}
  3, -3, 3;                               !- X,Y,Z Vertex 4 {m}

OS:Surface,
  {a8ae4649-d7c0-459b-a977-e37418c75e04}, !- Handle
  Surface 16,                             !- Name
  Wall,                                   !- Surface Type
  ,                                       !- Construction Name
  {39ab0bf7-a40d-42b1-aa6a-777b31a22b36}, !- Space Name
  Surface,                                !- Outside Boundary Condition
  {637e836e-7b48-46f2-970e-20fa4933dc3f}, !- Outside Boundary Condition Object
  NoSun,                                  !- Sun Exposure
  NoWind,                                 !- Wind Exposure
  ,                                       !- View Factor to Ground
  ,                                       !- Number of Vertices
  0, 14, 3,                               !- X,Y,Z Vertex 1 {m}
  0, 14, 0,                               !- X,Y,Z Vertex 2 {m}
  0, 0, 0,                                !- X,Y,Z Vertex 3 {m}
  0, 0, 3;                                !- X,Y,Z Vertex 4 {m}

OS:Surface,
  {9ce28ab3-260c-49fb-89f2-fbe1b5861ad0}, !- Handle
  Surface 17,                             !- Name
  Wall,                                   !- Surface Type
  ,                                       !- Construction Name
  {39ab0bf7-a40d-42b1-aa6a-777b31a22b36}, !- Space Name
  Surface,                                !- Outside Boundary Condition
  {3bfe2774-25b1-43a3-a5e5-46d5eea7497b}, !- Outside Boundary Condition Object
  NoSun,                                  !- Sun Exposure
  NoWind,                                 !- Wind Exposure
  ,                                       !- View Factor to Ground
  ,                                       !- Number of Vertices
  3, 17, 3,                               !- X,Y,Z Vertex 1 {m}
  3, 17, 0,                               !- X,Y,Z Vertex 2 {m}
  0, 14, 0,                               !- X,Y,Z Vertex 3 {m}
  0, 14, 3;                               !- X,Y,Z Vertex 4 {m}

OS:Surface,
  {dfaabd2b-2610-4540-adee-ab690b41f775}, !- Handle
  Surface 18,                             !- Name
  RoofCeiling,                            !- Surface Type
  ,                                       !- Construction Name
  {39ab0bf7-a40d-42b1-aa6a-777b31a22b36}, !- Space Name
  Surface,                                !- Outside Boundary Condition
  {eda0e41f-438d-4414-aa8c-89f6b7b4da2a}, !- Outside Boundary Condition Object
  NoSun,                                  !- Sun Exposure
  NoWind,                                 !- Wind Exposure
  ,                                       !- View Factor to Ground
  ,                                       !- Number of Vertices
  0, 14, 3,                               !- X,Y,Z Vertex 1 {m}
  0, 0, 3,                                !- X,Y,Z Vertex 2 {m}
  3, -3, 3,                               !- X,Y,Z Vertex 3 {m}
  3, 17, 3;                               !- X,Y,Z Vertex 4 {m}

OS:Space,
  {e3fad381-21ce-4f7a-9200-d998ee375397}, !- Handle
  Story 1 South Perimeter Space,          !- Name
  ,                                       !- Space Type Name
  ,                                       !- Default Construction Set Name
  ,                                       !- Default Schedule Set Name
  -0,                                     !- Direction of Relative North {deg}
  0,                                      !- X Origin {m}
  0,                                      !- Y Origin {m}
  0,                                      !- Z Origin {m}
  {0bf96609-a8e6-4a02-b6cd-03702bd62190}, !- Building Story Name
  {c105446a-42d8-4f2c-87d1-0856655aea37}; !- Thermal Zone Name

OS:Surface,
  {352f666d-71e9-40c5-842b-7e42b29077d7}, !- Handle
  Surface 19,                             !- Name
  Floor,                                  !- Surface Type
  ,                                       !- Construction Name
  {e3fad381-21ce-4f7a-9200-d998ee375397}, !- Space Name
  Ground,                                 !- Outside Boundary Condition
  ,                                       !- Outside Boundary Condition Object
  NoSun,                                  !- Sun Exposure
  NoWind,                                 !- Wind Exposure
  ,                                       !- View Factor to Ground
  ,                                       !- Number of Vertices
  20, 0, 0,                               !- X,Y,Z Vertex 1 {m}
  0, 0, 0,                                !- X,Y,Z Vertex 2 {m}
  3, 3, 0,                                !- X,Y,Z Vertex 3 {m}
  17, 3, 0;                               !- X,Y,Z Vertex 4 {m}

OS:Surface,
  {8fac9484-bf63-4506-9de3-eb270195543d}, !- Handle
  Surface 20,                             !- Name
  Wall,                                   !- Surface Type
  ,                                       !- Construction Name
  {e3fad381-21ce-4f7a-9200-d998ee375397}, !- Space Name
  Outdoors,                               !- Outside Boundary Condition
  ,                                       !- Outside Boundary Condition Object
  SunExposed,                             !- Sun Exposure
  WindExposed,                            !- Wind Exposure
  ,                                       !- View Factor to Ground
  ,                                       !- Number of Vertices
  0, 0, 3,                                !- X,Y,Z Vertex 1 {m}
  0, 0, 0,                                !- X,Y,Z Vertex 2 {m}
  20, 0, 0,                               !- X,Y,Z Vertex 3 {m}
  20, 0, 3;                               !- X,Y,Z Vertex 4 {m}

OS:Surface,
  {f6f8a5e5-7320-4ade-b0f2-c9d9714843e5}, !- Handle
  Surface 21,                             !- Name
  Wall,                                   !- Surface Type
  ,                                       !- Construction Name
  {e3fad381-21ce-4f7a-9200-d998ee375397}, !- Space Name
  Surface,                                !- Outside Boundary Condition
  {a2e7010a-98dc-4cd0-a9c0-21c1578af737}, !- Outside Boundary Condition Object
  NoSun,                                  !- Sun Exposure
  NoWind,                                 !- Wind Exposure
  ,                                       !- View Factor to Ground
  ,                                       !- Number of Vertices
  3, 3, 3,                                !- X,Y,Z Vertex 1 {m}
  3, 3, 0,                                !- X,Y,Z Vertex 2 {m}
  0, 0, 0,                                !- X,Y,Z Vertex 3 {m}
  0, 0, 3;                                !- X,Y,Z Vertex 4 {m}

OS:Surface,
  {e423a7ce-c6ba-4e51-b88c-51dc02d9d668}, !- Handle
  Surface 22,                             !- Name
  Wall,                                   !- Surface Type
  ,                                       !- Construction Name
  {e3fad381-21ce-4f7a-9200-d998ee375397}, !- Space Name
  Surface,                                !- Outside Boundary Condition
  {d9da56c4-7daa-4723-95fd-4ae934397d8a}, !- Outside Boundary Condition Object
  NoSun,                                  !- Sun Exposure
  NoWind,                                 !- Wind Exposure
  ,                                       !- View Factor to Ground
  ,                                       !- Number of Vertices
  17, 3, 3,                               !- X,Y,Z Vertex 1 {m}
  17, 3, 0,                               !- X,Y,Z Vertex 2 {m}
  3, 3, 0,                                !- X,Y,Z Vertex 3 {m}
  3, 3, 3;                                !- X,Y,Z Vertex 4 {m}

OS:Surface,
  {49a73271-f3c7-40e3-add7-371bdbaac230}, !- Handle
  Surface 23,                             !- Name
  Wall,                                   !- Surface Type
  ,                                       !- Construction Name
  {e3fad381-21ce-4f7a-9200-d998ee375397}, !- Space Name
  Surface,                                !- Outside Boundary Condition
  {02b7617f-9e8e-4b6b-b237-4ab735a0183e}, !- Outside Boundary Condition Object
  NoSun,                                  !- Sun Exposure
  NoWind,                                 !- Wind Exposure
  ,                                       !- View Factor to Ground
  ,                                       !- Number of Vertices
  20, 0, 3,                               !- X,Y,Z Vertex 1 {m}
  20, 0, 0,                               !- X,Y,Z Vertex 2 {m}
  17, 3, 0,                               !- X,Y,Z Vertex 3 {m}
  17, 3, 3;                               !- X,Y,Z Vertex 4 {m}

OS:Surface,
  {62371ea4-55b2-457a-b274-65d5b8263822}, !- Handle
  Surface 24,                             !- Name
  RoofCeiling,                            !- Surface Type
  ,                                       !- Construction Name
  {e3fad381-21ce-4f7a-9200-d998ee375397}, !- Space Name
  Surface,                                !- Outside Boundary Condition
  {179087a9-4705-4278-97be-4badb6e86fe8}, !- Outside Boundary Condition Object
  NoSun,                                  !- Sun Exposure
  NoWind,                                 !- Wind Exposure
  ,                                       !- View Factor to Ground
  ,                                       !- Number of Vertices
  17, 3, 3,                               !- X,Y,Z Vertex 1 {m}
  3, 3, 3,                                !- X,Y,Z Vertex 2 {m}
  0, 0, 3,                                !- X,Y,Z Vertex 3 {m}
  20, 0, 3;                               !- X,Y,Z Vertex 4 {m}

OS:Space,
  {4cf73935-b9c4-47b9-aa0e-8f5349771475}, !- Handle
  Story 1 Core Space,                     !- Name
  ,                                       !- Space Type Name
  ,                                       !- Default Construction Set Name
  ,                                       !- Default Schedule Set Name
  -0,                                     !- Direction of Relative North {deg}
  3,                                      !- X Origin {m}
  3,                                      !- Y Origin {m}
  0,                                      !- Z Origin {m}
  {0bf96609-a8e6-4a02-b6cd-03702bd62190}, !- Building Story Name
  {57f54a37-5349-486f-a363-b1872467fed6}; !- Thermal Zone Name

OS:Surface,
  {d0d5e841-2591-4f2b-ada6-528d79e522e3}, !- Handle
  Surface 25,                             !- Name
  Floor,                                  !- Surface Type
  ,                                       !- Construction Name
  {4cf73935-b9c4-47b9-aa0e-8f5349771475}, !- Space Name
  Ground,                                 !- Outside Boundary Condition
  ,                                       !- Outside Boundary Condition Object
  NoSun,                                  !- Sun Exposure
  NoWind,                                 !- Wind Exposure
  ,                                       !- View Factor to Ground
  ,                                       !- Number of Vertices
  0, 0, 0,                                !- X,Y,Z Vertex 1 {m}
  0, 14, 0,                               !- X,Y,Z Vertex 2 {m}
  14, 14, 0,                              !- X,Y,Z Vertex 3 {m}
  14, 0, 0;                               !- X,Y,Z Vertex 4 {m}

OS:Surface,
  {67fdba16-07d3-4684-b3a7-9fe130ba1993}, !- Handle
  Surface 26,                             !- Name
  Wall,                                   !- Surface Type
  ,                                       !- Construction Name
  {4cf73935-b9c4-47b9-aa0e-8f5349771475}, !- Space Name
  Surface,                                !- Outside Boundary Condition
  {6c380889-07a4-45c2-bf75-b9f505654f1d}, !- Outside Boundary Condition Object
  NoSun,                                  !- Sun Exposure
  NoWind,                                 !- Wind Exposure
  ,                                       !- View Factor to Ground
  ,                                       !- Number of Vertices
  0, 14, 3,                               !- X,Y,Z Vertex 1 {m}
  0, 14, 0,                               !- X,Y,Z Vertex 2 {m}
  0, 0, 0,                                !- X,Y,Z Vertex 3 {m}
  0, 0, 3;                                !- X,Y,Z Vertex 4 {m}

OS:Surface,
  {257a9dcd-7fca-41c0-9d89-638baccf5c48}, !- Handle
  Surface 27,                             !- Name
  Wall,                                   !- Surface Type
  ,                                       !- Construction Name
  {4cf73935-b9c4-47b9-aa0e-8f5349771475}, !- Space Name
  Surface,                                !- Outside Boundary Condition
  {063cdb5c-e968-439d-9c98-6c99323f8937}, !- Outside Boundary Condition Object
  NoSun,                                  !- Sun Exposure
  NoWind,                                 !- Wind Exposure
  ,                                       !- View Factor to Ground
  ,                                       !- Number of Vertices
  14, 14, 3,                              !- X,Y,Z Vertex 1 {m}
  14, 14, 0,                              !- X,Y,Z Vertex 2 {m}
  0, 14, 0,                               !- X,Y,Z Vertex 3 {m}
  0, 14, 3;                               !- X,Y,Z Vertex 4 {m}

OS:Surface,
  {637e836e-7b48-46f2-970e-20fa4933dc3f}, !- Handle
  Surface 28,                             !- Name
  Wall,                                   !- Surface Type
  ,                                       !- Construction Name
  {4cf73935-b9c4-47b9-aa0e-8f5349771475}, !- Space Name