
OS:Version,
  {990fc67c-c596-49da-af42-948604e2b726}, !- Handle
  0.10.0;                                 !- Version Identifier

OS:BuildingStory,
  {5a2bff57-b7af-408c-b298-c48ff42420da}, !- Handle
  Story 1,                                !- Name
  0,                                      !- Nominal Z Coordinate {m}
  3,                                      !- Nominal Floor to Floor Height {m}
  ,                                       !- Default Construction Set Name
  ,                                       !- Default Schedule Set Name
  ;                                       !- Group Rendering Name

OS:Space,
  {35413acd-af69-4c16-ab1a-3e03ae5f514a}, !- Handle
  Story 1 West Perimeter Space,           !- Name
  ,                                       !- Space Type Name
  ,                                       !- Default Construction Set Name
  ,                                       !- Default Schedule Set Name
  -0,                                     !- Direction of Relative North {deg}
  0,                                      !- X Origin {m}
  0,                                      !- Y Origin {m}
  0,                                      !- Z Origin {m}
  {5a2bff57-b7af-408c-b298-c48ff42420da}, !- Building Story Name
  {1c059065-f710-441a-905b-f44edec01b95}; !- Thermal Zone Name

OS:Surface,
  {4c8ee009-2c07-4e08-a414-ee8d26837c4b}, !- Handle
  Surface 1,                              !- Name
  Floor,                                  !- Surface Type
  ,                                       !- Construction Name
  {35413acd-af69-4c16-ab1a-3e03ae5f514a}, !- Space Name
  Ground,                                 !- Outside Boundary Condition
  ,                                       !- Outside Boundary Condition Object
  NoSun,                                  !- Sun Exposure
  NoWind,                                 !- Wind Exposure
  ,                                       !- View Factor to Ground
  ,                                       !- Number of Vertices
  0, 0, 0,                                !- X,Y,Z Vertex 1 {m}
  0, 20, 0,                               !- X,Y,Z Vertex 2 {m}
  3, 17, 0,                               !- X,Y,Z Vertex 3 {m}
  3, 3, 0;                                !- X,Y,Z Vertex 4 {m}

OS:Surface,
  {8d3cbf55-35b8-4756-a79e-d133c5cbf4f5}, !- Handle
  Surface 2,                              !- Name
  Wall,                                   !- Surface Type
  ,                                       !- Construction Name
  {35413acd-af69-4c16-ab1a-3e03ae5f514a}, !- Space Name
  Outdoors,                               !- Outside Boundary Condition
  ,                                       !- Outside Boundary Condition Object
  SunExposed,                             !- Sun Exposure
  WindExposed,                            !- Wind Exposure
  ,                                       !- View Factor to Ground
  ,                                       !- Number of Vertices
  0, 20, 3,                               !- X,Y,Z Vertex 1 {m}
  0, 20, 0,                               !- X,Y,Z Vertex 2 {m}
  0, 0, 0,                                !- X,Y,Z Vertex 3 {m}
  0, 0, 3;                                !- X,Y,Z Vertex 4 {m}

OS:Surface,
  {8725b47b-9f41-4480-b803-abbd0fbb5cc5}, !- Handle
  Surface 3,                              !- Name
  Wall,                                   !- Surface Type
  ,                                       !- Construction Name
  {35413acd-af69-4c16-ab1a-3e03ae5f514a}, !- Space Name
  Surface,                                !- Outside Boundary Condition
  {c5aa8c69-bcb9-4bec-aea5-107fedf050dc}, !- Outside Boundary Condition Object
  NoSun,                                  !- Sun Exposure
  NoWind,                                 !- Wind Exposure
  ,                                       !- View Factor to Ground
  ,                                       !- Number of Vertices
  3, 17, 3,                               !- X,Y,Z Vertex 1 {m}
  3, 17, 0,                               !- X,Y,Z Vertex 2 {m}
  0, 20, 0,                               !- X,Y,Z Vertex 3 {m}
  0, 20, 3;                               !- X,Y,Z Vertex 4 {m}

OS:Surface,
  {1ed3d2c9-ebbe-464d-b4ca-6ab5c9fecd9b}, !- Handle
  Surface 4,                              !- Name
  Wall,                                   !- Surface Type
  ,                                       !- Construction Name
  {35413acd-af69-4c16-ab1a-3e03ae5f514a}, !- Space Name
  Surface,                                !- Outside Boundary Condition
  {de60d336-0c0b-4248-a17d-d3de64c56d14}, !- Outside Boundary Condition Object
  NoSun,                                  !- Sun Exposure
  NoWind,                                 !- Wind Exposure
  ,                                       !- View Factor to Ground
  ,                                       !- Number of Vertices
  3, 3, 3,                                !- X,Y,Z Vertex 1 {m}
  3, 3, 0,                                !- X,Y,Z Vertex 2 {m}
  3, 17, 0,                               !- X,Y,Z Vertex 3 {m}
  3, 17, 3;                               !- X,Y,Z Vertex 4 {m}

OS:Surface,
  {2ec5415a-e33f-4da5-847d-75f92688be9d}, !- Handle
  Surface 5,                              !- Name
  Wall,                                   !- Surface Type
  ,                                       !- Construction Name
  {35413acd-af69-4c16-ab1a-3e03ae5f514a}, !- Space Name
  Surface,                                !- Outside Boundary Condition
  {ff0d11da-9f3b-4b82-82f9-f4f0b849cc92}, !- Outside Boundary Condition Object
  NoSun,                                  !- Sun Exposure
  NoWind,                                 !- Wind Exposure
  ,                                       !- View Factor to Ground
  ,                                       !- Number of Vertices
  0, 0, 3,                                !- X,Y,Z Vertex 1 {m}
  0, 0, 0,                                !- X,Y,Z Vertex 2 {m}
  3, 3, 0,                                !- X,Y,Z Vertex 3 {m}
  3, 3, 3;                                !- X,Y,Z Vertex 4 {m}

OS:Surface,
  {3e8829a6-ce0f-40eb-9d9d-d159a7011d4d}, !- Handle
  Surface 6,                              !- Name
  RoofCeiling,                            !- Surface Type
  ,                                       !- Construction Name
  {35413acd-af69-4c16-ab1a-3e03ae5f514a}, !- Space Name
  Surface,                                !- Outside Boundary Condition
  {c36e1d6a-e224-49d3-9fc6-44105fa9cccd}, !- Outside Boundary Condition Object
  NoSun,                                  !- Sun Exposure
  NoWind,                                 !- Wind Exposure
  ,                                       !- View Factor to Ground
  ,                                       !- Number of Vertices
  3, 3, 3,                                !- X,Y,Z Vertex 1 {m}
  3, 17, 3,                               !- X,Y,Z Vertex 2 {m}
  0, 20, 3,                               !- X,Y,Z Vertex 3 {m}
  0, 0, 3;                                !- X,Y,Z Vertex 4 {m}

OS:Space,
  {dc6f7026-fc68-47b7-b700-098ba2a64bd0}, !- Handle
  Story 1 North Perimeter Space,          !- Name
  ,                                       !- Space Type Name
  ,                                       !- Default Construction Set Name
  ,                                       !- Default Schedule Set Name
  -0,                                     !- Direction of Relative North {deg}
  3,                                      !- X Origin {m}
  17,                                     !- Y Origin {m}
  0,                                      !- Z Origin {m}
  {5a2bff57-b7af-408c-b298-c48ff42420da}, !- Building Story Name
  {04d83988-286b-4925-87a8-aecdf603dcad}; !- Thermal Zone Name

OS:Surface,
  {b47283c9-9d48-4710-9ec7-353fd1950b7a}, !- Handle
  Surface 7,                              !- Name
  Floor,                                  !- Surface Type
  ,                                       !- Construction Name
  {dc6f7026-fc68-47b7-b700-098ba2a64bd0}, !- Space Name
  Ground,                                 !- Outside Boundary Condition
  ,                                       !- Outside Boundary Condition Object
  NoSun,                                  !- Sun Exposure
  NoWind,                                 !- Wind Exposure
  ,                                       !- View Factor to Ground
  ,                                       !- Number of Vertices
  -3, 3, 0,                               !- X,Y,Z Vertex 1 {m}
  17, 3, 0,                               !- X,Y,Z Vertex 2 {m}
  14, 0, 0,                               !- X,Y,Z Vertex 3 {m}
  0, 0, 0;                                !- X,Y,Z Vertex 4 {m}

OS:Surface,
  {f7dc0624-15a2-4bdf-862c-45df2a0f2170}, !- Handle
  Surface 8,                              !- Name
  Wall,                                   !- Surface Type
  ,                                       !- Construction Name
  {dc6f7026-fc68-47b7-b700-098ba2a64bd0}, !- Space Name
  Outdoors,                               !- Outside Boundary Condition
  ,                                       !- Outside Boundary Condition Object
  SunExposed,                             !- Sun Exposure
  WindExposed,                            !- Wind Exposure
  ,                                       !- View Factor to Ground
  ,                                       !- Number of Vertices
  17, 3, 3,                               !- X,Y,Z Vertex 1 {m}
  17, 3, 0,                               !- X,Y,Z Vertex 2 {m}
  -3, 3, 0,                               !- X,Y,Z Vertex 3 {m}
  -3, 3, 3;                               !- X,Y,Z Vertex 4 {m}

OS:Surface,
  {ef71b7a7-16c8-4e9f-a635-4aebb8e35362}, !- Handle
  Surface 9,                              !- Name
  Wall,                                   !- Surface Type
  ,                                       !- Construction Name
  {dc6f7026-fc68-47b7-b700-098ba2a64bd0}, !- Space Name
  Surface,                                !- Outside Boundary Condition
  {91f1007f-7bb3-44a8-8ebf-07bc3912ed64}, !- Outside Boundary Condition Object
  NoSun,                                  !- Sun Exposure
  NoWind,                                 !- Wind Exposure
  ,                                       !- View Factor to Ground
  ,                                       !- Number of Vertices
  14, 0, 3,                               !- X,Y,Z Vertex 1 {m}
  14, 0, 0,                               !- X,Y,Z Vertex 2 {m}
  17, 3, 0,                               !- X,Y,Z Vertex 3 {m}
  17, 3, 3;                               !- X,Y,Z Vertex 4 {m}

OS:Surface,
  {6d764c08-c7bc-412f-b461-81fac3c10972}, !- Handle
  Surface 10,                             !- Name
  Wall,                                   !- Surface Type
  ,                                       !- Construction Name
  {dc6f7026-fc68-47b7-b700-098ba2a64bd0}, !- Space Name
  Surface,                                !- Outside Boundary Condition
  {839294bc-86ee-4c34-a346-28d92fa032ca}, !- Outside Boundary Condition Object
  NoSun,                                  !- Sun Exposure
  NoWind,                                 !- Wind Exposure
  ,                                       !- View Factor to Ground
  ,                                       !- Number of Vertices
  0, 0, 3,                                !- X,Y,Z Vertex 1 {m}
  0, 0, 0,                                !- X,Y,Z Vertex 2 {m}
  14, 0, 0,                               !- X,Y,Z Vertex 3 {m}
  14, 0, 3;                               !- X,Y,Z Vertex 4 {m}

OS:Surface,
  {c5aa8c69-bcb9-4bec-aea5-107fedf050dc}, !- Handle
  Surface 11,                             !- Name
  Wall,                                   !- Surface Type
  ,                                       !- Construction Name
  {dc6f7026-fc68-47b7-b700-098ba2a64bd0}, !- Space Name
  Surface,                                !- Outside Boundary Condition
  {8725b47b-9f41-4480-b803-abbd0fbb5cc5}, !- Outside Boundary Condition Object
  NoSun,                                  !- Sun Exposure
  NoWind,                                 !- Wind Exposure
  ,                                       !- View Factor to Ground
  ,                                       !- Number of Vertices
  -3, 3, 3,                               !- X,Y,Z Vertex 1 {m}
  -3, 3, 0,                               !- X,Y,Z Vertex 2 {m}
  0, 0, 0,                                !- X,Y,Z Vertex 3 {m}
  0, 0, 3;                                !- X,Y,Z Vertex 4 {m}

OS:Surface,
  {25097f6a-9658-4960-a542-c5a5d8ff721b}, !- Handle
  Surface 12,                             !- Name
  RoofCeiling,                            !- Surface Type
  ,                                       !- Construction Name
  {dc6f7026-fc68-47b7-b700-098ba2a64bd0}, !- Space Name
  Surface,                                !- Outside Boundary Condition
  {749650fc-d47f-4a1f-86a0-0cf308547514}, !- Outside Boundary Condition Object
  NoSun,                                  !- Sun Exposure
  NoWind,                                 !- Wind Exposure
  ,                                       !- View Factor to Ground
  ,                                       !- Number of Vertices
  0, 0, 3,                                !- X,Y,Z Vertex 1 {m}
  14, 0, 3,                               !- X,Y,Z Vertex 2 {m}
  17, 3, 3,                               !- X,Y,Z Vertex 3 {m}
  -3, 3, 3;                               !- X,Y,Z Vertex 4 {m}

OS:Space,
  {968ea529-557c-49a9-bb4a-fcb69d6f0781}, !- Handle
  Story 1 East Perimeter Space,           !- Name
  ,                                       !- Space Type Name
  ,                                       !- Default Construction Set Name
  ,                                       !- Default Schedule Set Name
  -0,                                     !- Direction of Relative North {deg}
  17,                                     !- X Origin {m}
  3,                                      !- Y Origin {m}
  0,                                      !- Z Origin {m}
  {5a2bff57-b7af-408c-b298-c48ff42420da}, !- Building Story Name
  {741d927e-16a7-40d1-a78a-e6bcaf606587}; !- Thermal Zone Name

OS:Surface,
  {fc42c95f-d5eb-487f-9397-56ee957ce57e}, !- Handle
  Surface 13,                             !- Name
  Floor,                                  !- Surface Type
  ,                                       !- Construction Name
  {968ea529-557c-49a9-bb4a-fcb69d6f0781}, !- Space Name
  Ground,                                 !- Outside Boundary Condition
  ,                                       !- Outside Boundary Condition Object
  NoSun,                                  !- Sun Exposure
  NoWind,                                 !- Wind Exposure
  ,                                       !- View Factor to Ground
  ,                                       !- Number of Vertices
  3, 17, 0,                               !- X,Y,Z Vertex 1 {m}
  3, -3, 0,                               !- X,Y,Z Vertex 2 {m}
  0, 0, 0,                                !- X,Y,Z Vertex 3 {m}
  0, 14, 0;                               !- X,Y,Z Vertex 4 {m}

OS:Surface,
  {b12938d4-5a7d-4935-9767-7ed40376a3fc}, !- Handle
  Surface 14,                             !- Name
  Wall,                                   !- Surface Type
  ,                                       !- Construction Name
  {968ea529-557c-49a9-bb4a-fcb69d6f0781}, !- Space Name
  Outdoors,                               !- Outside Boundary Condition
  ,                                       !- Outside Boundary Condition Object
  SunExposed,                             !- Sun Exposure
  WindExposed,                            !- Wind Exposure
  ,                                       !- View Factor to Ground
  ,                                       !- Number of Vertices
  3, -3, 3,                               !- X,Y,Z Vertex 1 {m}
  3, -3, 0,                               !- X,Y,Z Vertex 2 {m}
  3, 17, 0,                               !- X,Y,Z Vertex 3 {m}
  3, 17, 3;                               !- X,Y,Z Vertex 4 {m}

OS:Surface,
  {e338d1b0-5eef-4d5a-926a-df7674aa976d}, !- Handle
  Surface 15,                             !- Name
  Wall,                                   !- Surface Type
  ,                                       !- Construction Name
  {968ea529-557c-49a9-bb4a-fcb69d6f0781}, !- Space Name
  Surface,                                !- Outside Boundary Condition
  {88f3fdef-b955-4979-8d3b-196cc625b7e9}, !- Outside Boundary Condition Object
  NoSun,                                  !- Sun Exposure
  NoWind,                                 !- Wind Exposure
  ,                                       !- View Factor to Ground
  ,                                       !- Number of Vertices
  0, 0, 3,                                !- X,Y,Z Vertex 1 {m}
  0, 0, 0,                                !- X,Y,Z Vertex 2 {m}
  3, -3, 0,                               !- X,Y,Z Vertex 3 {m}
  3, -3, 3;                               !- X,Y,Z Vertex 4 {m}

OS:Surface,
  {8ef454c3-047b-4851-9414-dd6dcc701e48}, !- Handle
  Surface 16,                             !- Name
  Wall,                                   !- Surface Type
  ,                                       !- Construction Name
  {968ea529-557c-49a9-bb4a-fcb69d6f0781}, !- Space Name
  Surface,                                !- Outside Boundary Condition
  {7c22db5e-23ac-4bd0-a07c-928dbb7789f5}, !- Outside Boundary Condition Object
  NoSun,                                  !- Sun Exposure
  NoWind,                                 !- Wind Exposure
  ,                                       !- View Factor to Ground
  ,                                       !- Number of Vertices
  0, 14, 3,                               !- X,Y,Z Vertex 1 {m}
  0, 14, 0,                               !- X,Y,Z Vertex 2 {m}
  0, 0, 0,                                !- X,Y,Z Vertex 3 {m}
  0, 0, 3;                                !- X,Y,Z Vertex 4 {m}

OS:Surface,
  {91f1007f-7bb3-44a8-8ebf-07bc3912ed64}, !- Handle
  Surface 17,                             !- Name
  Wall,                                   !- Surface Type
  ,                                       !- Construction Name
  {968ea529-557c-49a9-bb4a-fcb69d6f0781}, !- Space Name
  Surface,                                !- Outside Boundary Condition
  {ef71b7a7-16c8-4e9f-a635-4aebb8e35362}, !- Outside Boundary Condition Object
  NoSun,                                  !- Sun Exposure
  NoWind,                                 !- Wind Exposure
  ,                                       !- View Factor to Ground
  ,                                       !- Number of Vertices
  3, 17, 3,                               !- X,Y,Z Vertex 1 {m}
  3, 17, 0,                               !- X,Y,Z Vertex 2 {m}
  0, 14, 0,                               !- X,Y,Z Vertex 3 {m}
  0, 14, 3;                               !- X,Y,Z Vertex 4 {m}

OS:Surface,
  {53781c77-5d90-4341-a1ba-c8e74dc4d7ab}, !- Handle
  Surface 18,                             !- Name
  RoofCeiling,                            !- Surface Type
  ,                                       !- Construction Name
  {968ea529-557c-49a9-bb4a-fcb69d6f0781}, !- Space Name
  Surface,                                !- Outside Boundary Condition
  {22950bb3-1307-42ca-a112-38f1f0f2e644}, !- Outside Boundary Condition Object
  NoSun,                                  !- Sun Exposure
  NoWind,                                 !- Wind Exposure
  ,                                       !- View Factor to Ground
  ,                                       !- Number of Vertices
  0, 14, 3,                               !- X,Y,Z Vertex 1 {m}
  0, 0, 3,                                !- X,Y,Z Vertex 2 {m}
  3, -3, 3,                               !- X,Y,Z Vertex 3 {m}
  3, 17, 3;                               !- X,Y,Z Vertex 4 {m}

OS:Space,
  {8a09a72d-6237-4b41-8736-3fcddd6b27b6}, !- Handle
  Story 1 South Perimeter Space,          !- Name
  ,                                       !- Space Type Name
  ,                                       !- Default Construction Set Name
  ,                                       !- Default Schedule Set Name
  -0,                                     !- Direction of Relative North {deg}
  0,                                      !- X Origin {m}
  0,                                      !- Y Origin {m}
  0,                                      !- Z Origin {m}
  {5a2bff57-b7af-408c-b298-c48ff42420da}, !- Building Story Name
  {f08d140d-dae3-4200-8313-71bfc36f7c2e}; !- Thermal Zone Name

OS:Surface,
  {a5d50ced-add7-4ae4-89b4-8965a7b85017}, !- Handle
  Surface 19,                             !- Name
  Floor,                                  !- Surface Type
  ,                                       !- Construction Name
  {8a09a72d-6237-4b41-8736-3fcddd6b27b6}, !- Space Name
  Ground,                                 !- Outside Boundary Condition
  ,                                       !- Outside Boundary Condition Object
  NoSun,                                  !- Sun Exposure
  NoWind,                                 !- Wind Exposure
  ,                                       !- View Factor to Ground
  ,                                       !- Number of Vertices
  20, 0, 0,                               !- X,Y,Z Vertex 1 {m}
  0, 0, 0,                                !- X,Y,Z Vertex 2 {m}
  3, 3, 0,                                !- X,Y,Z Vertex 3 {m}
  17, 3, 0;                               !- X,Y,Z Vertex 4 {m}

OS:Surface,
  {992f97d5-a45c-4c15-a7e4-faf8b2ff757c}, !- Handle
  Surface 20,                             !- Name
  Wall,                                   !- Surface Type
  ,                                       !- Construction Name
  {8a09a72d-6237-4b41-8736-3fcddd6b27b6}, !- Space Name
  Outdoors,                               !- Outside Boundary Condition
  ,                                       !- Outside Boundary Condition Object
  SunExposed,                             !- Sun Exposure
  WindExposed,                            !- Wind Exposure
  ,                                       !- View Factor to Ground
  ,                                       !- Number of Vertices
  0, 0, 3,                                !- X,Y,Z Vertex 1 {m}
  0, 0, 0,                                !- X,Y,Z Vertex 2 {m}
  20, 0, 0,                               !- X,Y,Z Vertex 3 {m}
  20, 0, 3;                               !- X,Y,Z Vertex 4 {m}

OS:Surface,
  {ff0d11da-9f3b-4b82-82f9-f4f0b849cc92}, !- Handle
  Surface 21,                             !- Name
  Wall,                                   !- Surface Type
  ,                                       !- Construction Name
  {8a09a72d-6237-4b41-8736-3fcddd6b27b6}, !- Space Name
  Surface,                                !- Outside Boundary Condition
  {2ec5415a-e33f-4da5-847d-75f92688be9d}, !- Outside Boundary Condition Object
  NoSun,                                  !- Sun Exposure
  NoWind,                                 !- Wind Exposure
  ,                                       !- View Factor to Ground
  ,                                       !- Number of Vertices
  3, 3, 3,                                !- X,Y,Z Vertex 1 {m}
  3, 3, 0,                                !- X,Y,Z Vertex 2 {m}
  0, 0, 0,                                !- X,Y,Z Vertex 3 {m}
  0, 0, 3;                                !- X,Y,Z Vertex 4 {m}

OS:Surface,
  {0a4630f0-53d4-4104-8a51-3681332f1108}, !- Handle
  Surface 22,                             !- Name
  Wall,                                   !- Surface Type
  ,                                       !- Construction Name
  {8a09a72d-6237-4b41-8736-3fcddd6b27b6}, !- Space Name
  Surface,                                !- Outside Boundary Condition
  {ddff8eba-5e31-4ef3-81f2-6d773814cb9d}, !- Outside Boundary Condition Object
  NoSun,                                  !- Sun Exposure
  NoWind,                                 !- Wind Exposure
  ,                                       !- View Factor to Ground
  ,                                       !- Number of Vertices
  17, 3, 3,                               !- X,Y,Z Vertex 1 {m}
  17, 3, 0,                               !- X,Y,Z Vertex 2 {m}
  3, 3, 0,                                !- X,Y,Z Vertex 3 {m}
  3, 3, 3;                                !- X,Y,Z Vertex 4 {m}

OS:Surface,
  {88f3fdef-b955-4979-8d3b-196cc625b7e9}, !- Handle
  Surface 23,                             !- Name
  Wall,                                   !- Surface Type
  ,                                       !- Construction Name
  {8a09a72d-6237-4b41-8736-3fcddd6b27b6}, !- Space Name
  Surface,                                !- Outside Boundary Condition
  {e338d1b0-5eef-4d5a-926a-df7674aa976d}, !- Outside Boundary Condition Object
  NoSun,                                  !- Sun Exposure
  NoWind,                                 !- Wind Exposure
  ,                                       !- View Factor to Ground
  ,                                       !- Number of Vertices
  20, 0, 3,                               !- X,Y,Z Vertex 1 {m}
  20, 0, 0,                               !- X,Y,Z Vertex 2 {m}
  17, 3, 0,                               !- X,Y,Z Vertex 3 {m}
  17, 3, 3;                               !- X,Y,Z Vertex 4 {m}

OS:Surface,
  {966968b7-6d94-4947-83aa-2d15ba6c626a}, !- Handle
  Surface 24,                             !- Name
  RoofCeiling,                            !- Surface Type
  ,                                       !- Construction Name
  {8a09a72d-6237-4b41-8736-3fcddd6b27b6}, !- Space Name
  Surface,                                !- Outside Boundary Condition
  {48e2a2ff-72a4-48b5-9253-02de2e665f19}, !- Outside Boundary Condition Object
  NoSun,                                  !- Sun Exposure
  NoWind,                                 !- Wind Exposure
  ,                                       !- View Factor to Ground
  ,                                       !- Number of Vertices
  17, 3, 3,                               !- X,Y,Z Vertex 1 {m}
  3, 3, 3,                                !- X,Y,Z Vertex 2 {m}
  0, 0, 3,                                !- X,Y,Z Vertex 3 {m}
  20, 0, 3;                               !- X,Y,Z Vertex 4 {m}

OS:Space,
  {2e2aa7c3-f603-4711-92bc-f138cb3346b6}, !- Handle
  Story 1 Core Space,                     !- Name
  ,                                       !- Space Type Name
  ,                                       !- Default Construction Set Name
  ,                                       !- Default Schedule Set Name
  -0,                                     !- Direction of Relative North {deg}
  3,                                      !- X Origin {m}
  3,                                      !- Y Origin {m}
  0,                                      !- Z Origin {m}
  {5a2bff57-b7af-408c-b298-c48ff42420da}, !- Building Story Name
  {203efe83-c258-427c-b261-7cae300dd957}; !- Thermal Zone Name

OS:Surface,
  {f418ceba-7c80-42dc-8b96-1d05771592e1}, !- Handle
  Surface 25,                             !- Name
  Floor,                                  !- Surface Type
  ,                                       !- Construction Name
  {2e2aa7c3-f603-4711-92bc-f138cb3346b6}, !- Space Name
  Ground,                                 !- Outside Boundary Condition
  ,                                       !- Outside Boundary Condition Object
  NoSun,                                  !- Sun Exposure
  NoWind,                                 !- Wind Exposure
  ,                                       !- View Factor to Ground
  ,                                       !- Number of Vertices
  0, 0, 0,                                !- X,Y,Z Vertex 1 {m}
  0, 14, 0,                               !- X,Y,Z Vertex 2 {m}
  14, 14, 0,                              !- X,Y,Z Vertex 3 {m}
  14, 0, 0;                               !- X,Y,Z Vertex 4 {m}

OS:Surface,
  {de60d336-0c0b-4248-a17d-d3de64c56d14}, !- Handle
  Surface 26,                             !- Name
  Wall,                                   !- Surface Type
  ,                                       !- Construction Name
  {2e2aa7c3-f603-4711-92bc-f138cb3346b6}, !- Space Name
  Surface,                                !- Outside Boundary Condition
  {1ed3d2c9-ebbe-464d-b4ca-6ab5c9fecd9b}, !- Outside Boundary Condition Object
  NoSun,                                  !- Sun Exposure
  NoWind,                                 !- Wind Exposure
  ,                                       !- View Factor to Ground
  ,                                       !- Number of Vertices
  0, 14, 3,                               !- X,Y,Z Vertex 1 {m}
  0, 14, 0,                               !- X,Y,Z Vertex 2 {m}
  0, 0, 0,                                !- X,Y,Z Vertex 3 {m}
  0, 0, 3;                                !- X,Y,Z Vertex 4 {m}

OS:Surface,
  {839294bc-86ee-4c34-a346-28d92fa032ca}, !- Handle
  Surface 27,                             !- Name
  Wall,                                   !- Surface Type
  ,                                       !- Construction Name
  {2e2aa7c3-f603-4711-92bc-f138cb3346b6}, !- Space Name
  Surface,                                !- Outside Boundary Condition
  {6d764c08-c7bc-412f-b461-81fac3c10972}, !- Outside Boundary Condition Object
  NoSun,                                  !- Sun Exposure
  NoWind,                                 !- Wind Exposure
  ,                                       !- View Factor to Ground
  ,                                       !- Number of Vertices
  14, 14, 3,                              !- X,Y,Z Vertex 1 {m}
  14, 14, 0,                              !- X,Y,Z Vertex 2 {m}
  0, 14, 0,                               !- X,Y,Z Vertex 3 {m}
  0, 14, 3;                               !- X,Y,Z Vertex 4 {m}

OS:Surface,
  {7c22db5e-23ac-4bd0-a07c-928dbb7789f5}, !- Handle
  Surface 28,                             !- Name
  Wall,                                   !- Surface Type
  ,                                       !- Construction Name
  {2e2aa7c3-f603-4711-92bc-f138cb3346b6}, !- Space Name