
Version,
  7.2;                                    !- Version Identifier

SimulationControl,
  Yes,                                    !- Do Zone Sizing Calculation
  Yes,                                    !- Do System Sizing Calculation
  Yes,                                    !- Do Plant Sizing Calculation
  Yes,                                    !- Run Simulation for Sizing Periods
  Yes;                                    !- Run Simulation for Weather File Run Periods

ProgramControl,
  1;                                      !- Number of Threads Allowed

Sizing:Parameters,
  1.25,                                   !- Heating Sizing Factor
  1.15;                                   !- Cooling Sizing Factor

RunPeriod,
  Run Period 1,                           !- Name
  1,                                      !- Begin Month
  1,                                      !- Begin Day of Month
  12,                                     !- End Month
  31,                                     !- End Day of Month
  Thursday,                               !- Day of Week for Start Day
  Yes,                                    !- Use Weather File Holidays and Special Days
  Yes,                                    !- Use Weather File Daylight Saving Period
  No,                                     !- Apply Weekend Holiday Rule
  Yes,                                    !- Use Weather File Rain Indicators
  Yes,                                    !- Use Weather File Snow Indicators
  1;                                      !- Number of Times Runperiod to be Repeated

GlobalGeometryRules,
  UpperLeftCorner,                        !- Starting Vertex Position
  Counterclockwise,                       !- Vertex Entry Direction
  Relative,                               !- Coordinate System
  Relative,                               !- Daylighting Reference Point Coordinate System
  Relative;                               !- Rectangular Surface Coordinate System

ScheduleTypeLimits,
  Temperature 2,                          !- Name
  ,                                       !- Lower Limit Value {BasedOnField A3}
  ,                                       !- Upper Limit Value {BasedOnField A3}
  Continuous,                             !- Numeric Type
  temperature;                            !- Unit Type

ScheduleTypeLimits,
  Temperature 3,                          !- Name
  ,                                       !- Lower Limit Value {BasedOnField A3}
  ,                                       !- Upper Limit Value {BasedOnField A3}
  Continuous,                             !- Numeric Type
  temperature;                            !- Unit Type

ScheduleTypeLimits,
  Temperature 1,                          !- Name
  ,                                       !- Lower Limit Value {BasedOnField A3}
  ,                                       !- Upper Limit Value {BasedOnField A3}
  Continuous,                             !- Numeric Type
  temperature;                            !- Unit Type

ScheduleTypeLimits,
  Temperature,                            !- Name
  ,                                       !- Lower Limit Value {BasedOnField A3}
  ,                                       !- Upper Limit Value {BasedOnField A3}
  Continuous,                             !- Numeric Type
  temperature;                            !- Unit Type

ScheduleTypeLimits,
  OnOff,                                  !- Name
  0,                                      !- Lower Limit Value {BasedOnField A3}
  1,                                      !- Upper Limit Value {BasedOnField A3}
  Discrete,                               !- Numeric Type
  availability;                           !- Unit Type

Schedule:Day:Interval,
  Heating Sch Default,                    !- Name
  Temperature 2,                          !- Schedule Type Limits Name
  No,                                     !- Interpolate to Timestep
  24:00,                                  !- Time 1 {hh:mm}
  24;                                     !- Value Until Time 1

Schedule:Day:Interval,
  Cooling Sch Default,                    !- Name
  Temperature 3,                          !- Schedule Type Limits Name
  No,                                     !- Interpolate to Timestep
  24:00,                                  !- Time 1 {hh:mm}
  28;                                     !- Value Until Time 1

Schedule:Day:Interval,
  Hot_Water_Temperature_Winter_Design_Day, !- Name
  Temperature 1,                          !- Schedule Type Limits Name
  No,                                     !- Interpolate to Timestep
  24:00,                                  !- Time 1 {hh:mm}
  67;                                     !- Value Until Time 1

Schedule:Day:Interval,
  Chilled_Water_Temperature_Default,      !- Name
  ,                                       !- Schedule Type Limits Name
  No,                                     !- Interpolate to Timestep
  24:00,                                  !- Time 1 {hh:mm}
  6.7;                                    !- Value Until Time 1

Schedule:Day:Interval,
  Deck_Temperature_Default,               !- Name
  Temperature,                            !- Schedule Type Limits Name
  No,                                     !- Interpolate to Timestep
  24:00,                                  !- Time 1 {hh:mm}
  12.8;                                   !- Value Until Time 1

Schedule:Day:Interval,
  Always_On_Default,                      !- Name
  OnOff,                                  !- Schedule Type Limits Name
  No,                                     !- Interpolate to Timestep
  24:00,                                  !- Time 1 {hh:mm}
  1;                                      !- Value Until Time 1

Schedule:Day:Interval,
  Deck_Temperature_Summer_Design_Day,     !- Name
  Temperature,                            !- Schedule Type Limits Name
  No,                                     !- Interpolate to Timestep
  24:00,                                  !- Time 1 {hh:mm}
  12.8;                                   !- Value Until Time 1

Schedule:Day:Interval,
  Always_On_Summer_Design_Day,            !- Name
  OnOff,                                  !- Schedule Type Limits Name
  No,                                     !- Interpolate to Timestep
  24:00,                                  !- Time 1 {hh:mm}
  1;                                      !- Value Until Time 1

Schedule:Day:Interval,
  Chilled_Water_Temperature_Summer_Design_Day, !- Name
  ,                                       !- Schedule Type Limits Name
  No,                                     !- Interpolate to Timestep
  24:00,                                  !- Time 1 {hh:mm}
  6.7;                                    !- Value Until Time 1

Schedule:Day:Interval,
  Chilled_Water_Temperature_Winter_Design_Day, !- Name
  ,                                       !- Schedule Type Limits Name
  No,                                     !- Interpolate to Timestep
  24:00,                                  !- Time 1 {hh:mm}
  6.7;                                    !- Value Until Time 1

Schedule:Day:Interval,
  Deck_Temperature_Winter_Design_Day,     !- Name
  Temperature,                            !- Schedule Type Limits Name
  No,                                     !- Interpolate to Timestep
  24:00,                                  !- Time 1 {hh:mm}
  12.8;                                   !- Value Until Time 1

Schedule:Day:Interval,
  Hot_Water_Temperature_Default,          !- Name
  Temperature 1,                          !- Schedule Type Limits Name
  No,                                     !- Interpolate to Timestep
  24:00,                                  !- Time 1 {hh:mm}
  67;                                     !- Value Until Time 1

Schedule:Day:Interval,
  Always_On_Winter_Design_Day,            !- Name
  OnOff,                                  !- Schedule Type Limits Name
  No,                                     !- Interpolate to Timestep
  24:00,                                  !- Time 1 {hh:mm}
  1;                                      !- Value Until Time 1

Schedule:Day:Interval,
  Hot_Water_Temperature_Summer_Design_Day, !- Name
  Temperature 1,                          !- Schedule Type Limits Name
  No,                                     !- Interpolate to Timestep
  24:00,                                  !- Time 1 {hh:mm}
  67;                                     !- Value Until Time 1

Schedule:Week:Daily,
  Schedule:Week:Daily {549e6a21-7226-493b-af7f-cbcf95983ab7}, !- Name
  Always_On_Default,                      !- Sunday Schedule:Day Name
  Always_On_Default,                      !- Monday Schedule:Day Name
  Always_On_Default,                      !- Tuesday Schedule:Day Name
  Always_On_Default,                      !- Wednesday Schedule:Day Name
  Always_On_Default,                      !- Thursday Schedule:Day Name
  Always_On_Default,                      !- Friday Schedule:Day Name
  Always_On_Default,                      !- Saturday Schedule:Day Name
  Always_On_Default,                      !- Holiday Schedule:Day Name
  Always_On_Summer_Design_Day,            !- SummerDesignDay Schedule:Day Name
  Always_On_Winter_Design_Day,            !- WinterDesignDay Schedule:Day Name
  Always_On_Default,                      !- CustomDay1 Schedule:Day Name
  Always_On_Default;                      !- CustomDay2 Schedule:Day Name

Schedule:Year,
  Always_On,                              !- Name
  OnOff,                                  !- Schedule Type Limits Name
  Schedule:Week:Daily {549e6a21-7226-493b-af7f-cbcf95983ab7}, !- Schedule:Week Name 1
  1,                                      !- Start Month 1
  1,                                      !- Start Day 1
  12,                                     !- End Month 1
  31;                                     !- End Day 1

Schedule:Week:Daily,
  Schedule:Week:Daily {1f0677e2-ab22-46a1-8490-7b0d5c0e8476}, !- Name
  Chilled_Water_Temperature_Default,      !- Sunday Schedule:Day Name
  Chilled_Water_Temperature_Default,      !- Monday Schedule:Day Name
  Chilled_Water_Temperature_Default,      !- Tuesday Schedule:Day Name
  Chilled_Water_Temperature_Default,      !- Wednesday Schedule:Day Name
  Chilled_Water_Temperature_Default,      !- Thursday Schedule:Day Name
  Chilled_Water_Temperature_Default,      !- Friday Schedule:Day Name
  Chilled_Water_Temperature_Default,      !- Saturday Schedule:Day Name
  Chilled_Water_Temperature_Default,      !- Holiday Schedule:Day Name
  Chilled_Water_Temperature_Summer_Design_Day, !- SummerDesignDay Schedule:Day Name
  Chilled_Water_Temperature_Winter_Design_Day, !- WinterDesignDay Schedule:Day Name
  Chilled_Water_Temperature_Default,      !- CustomDay1 Schedule:Day Name
  Chilled_Water_Temperature_Default;      !- CustomDay2 Schedule:Day Name

Schedule:Year,
  Chilled_Water_Temperature,              !- Name
  ,                                       !- Schedule Type Limits Name
  Schedule:Week:Daily {1f0677e2-ab22-46a1-8490-7b0d5c0e8476}, !- Schedule:Week Name 1
  1,                                      !- Start Month 1
  1,                                      !- Start Day 1
  12,                                     !- End Month 1
  31;                                     !- End Day 1

Schedule:Week:Daily,
  Schedule:Week:Daily {e477ede3-9c53-4b37-8244-b08f2c6b016a}, !- Name
  Deck_Temperature_Default,               !- Sunday Schedule:Day Name
  Deck_Temperature_Default,               !- Monday Schedule:Day Name
  Deck_Temperature_Default,               !- Tuesday Schedule:Day Name
  Deck_Temperature_Default,               !- Wednesday Schedule:Day Name
  Deck_Temperature_Default,               !- Thursday Schedule:Day Name
  Deck_Temperature_Default,               !- Friday Schedule:Day Name
  Deck_Temperature_Default,               !- Saturday Schedule:Day Name
  Deck_Temperature_Default,               !- Holiday Schedule:Day Name
  Deck_Temperature_Summer_Design_Day,     !- SummerDesignDay Schedule:Day Name
  Deck_Temperature_Winter_Design_Day,     !- WinterDesignDay Schedule:Day Name
  Deck_Temperature_Default,               !- CustomDay1 Schedule:Day Name
  Deck_Temperature_Default;               !- CustomDay2 Schedule:Day Name

Schedule:Year,
  Deck_Temperature,                       !- Name
  Temperature,                            !- Schedule Type Limits Name
  Schedule:Week:Daily {e477ede3-9c53-4b37-8244-b08f2c6b016a}, !- Schedule:Week Name 1
  1,                                      !- Start Month 1
  1,                                      !- Start Day 1
  12,                                     !- End Month 1
  31;                                     !- End Day 1

Schedule:Week:Daily,
  Schedule:Week:Daily {cc33c822-d235-405c-9eab-b80cc8130560}, !- Name
  Hot_Water_Temperature_Default,          !- Sunday Schedule:Day Name
  Hot_Water_Temperature_Default,          !- Monday Schedule:Day Name
  Hot_Water_Temperature_Default,          !- Tuesday Schedule:Day Name
  Hot_Water_Temperature_Default,          !- Wednesday Schedule:Day Name
  Hot_Water_Temperature_Default,          !- Thursday Schedule:Day Name
  Hot_Water_Temperature_Default,          !- Friday Schedule:Day Name
  Hot_Water_Temperature_Default,          !- Saturday Schedule:Day Name
  Hot_Water_Temperature_Default,          !- Holiday Schedule:Day Name
  Hot_Water_Temperature_Summer_Design_Day, !- SummerDesignDay Schedule:Day Name
  Hot_Water_Temperature_Winter_Design_Day, !- WinterDesignDay Schedule:Day Name
  Hot_Water_Temperature_Default,          !- CustomDay1 Schedule:Day Name
  Hot_Water_Temperature_Default;          !- CustomDay2 Schedule:Day Name

Schedule:Year,
  Hot_Water_Temperature,                  !- Name
  Temperature 1,                          !- Schedule Type Limits Name
  Schedule:Week:Daily {cc33c822-d235-405c-9eab-b80cc8130560}, !- Schedule:Week Name 1
  1,                                      !- Start Month 1
  1,                                      !- Start Day 1
  12,                                     !- End Month 1
  31;                                     !- End Day 1

Schedule:Week:Daily,
  Schedule:Week:Daily {be254798-5afe-4e72-b2a7-7fbb5b48c06f}, !- Name
  Heating Sch Default,                    !- Sunday Schedule:Day Name
  Heating Sch Default,                    !- Monday Schedule:Day Name
  Heating Sch Default,                    !- Tuesday Schedule:Day Name
  Heating Sch Default,                    !- Wednesday Schedule:Day Name
  Heating Sch Default,                    !- Thursday Schedule:Day Name
  Heating Sch Default,                    !- Friday Schedule:Day Name
  Heating Sch Default,                    !- Saturday Schedule:Day Name
  Heating Sch Default,                    !- Holiday Schedule:Day Name
  Heating Sch Default,                    !- SummerDesignDay Schedule:Day Name
  Heating Sch Default,                    !- WinterDesignDay Schedule:Day Name
  Heating Sch Default,                    !- CustomDay1 Schedule:Day Name
  Heating Sch Default;                    !- CustomDay2 Schedule:Day Name

Schedule:Year,
  Heating Sch,                            !- Name
  Temperature 2,                          !- Schedule Type Limits Name
  Schedule:Week:Daily {be254798-5afe-4e72-b2a7-7fbb5b48c06f}, !- Schedule:Week Name 1
  1,                                      !- Start Month 1
  1,                                      !- Start Day 1
  12,                                     !- End Month 1
  31;                                     !- End Day 1

Schedule:Week:Daily,
  Schedule:Week:Daily {705638a4-1928-4f43-a016-790c5f3715e9}, !- Name
  Cooling Sch Default,                    !- Sunday Schedule:Day Name
  Cooling Sch Default,                    !- Monday Schedule:Day Name
  Cooling Sch Default,                    !- Tuesday Schedule:Day Name
  Cooling Sch Default,                    !- Wednesday Schedule:Day Name
  Cooling Sch Default,                    !- Thursday Schedule:Day Name
  Cooling Sch Default,                    !- Friday Schedule:Day Name
  Cooling Sch Default,                    !- Saturday Schedule:Day Name
  Cooling Sch Default,                    !- Holiday Schedule:Day Name
  Cooling Sch Default,                    !- SummerDesignDay Schedule:Day Name
  Cooling Sch Default,                    !- WinterDesignDay Schedule:Day Name
  Cooling Sch Default,                    !- CustomDay1 Schedule:Day Name
  Cooling Sch Default;                    !- CustomDay2 Schedule:Day Name

Schedule:Year,
  Cooling Sch,                            !- Name
  Temperature 3,                          !- Schedule Type Limits Name
  Schedule:Week:Daily {705638a4-1928-4f43-a016-790c5f3715e9}, !- Schedule:Week Name 1
  1,                                      !- Start Month 1
  1,                                      !- Start Day 1
  12,                                     !- End Month 1
  31;                                     !- End Day 1

AirLoopHVAC,
  Air Loop HVAC 1,                        !- Name
  Air Loop HVAC 1 Controllers,            !- Controller List Name
  AvailabilityManagerAssignmentList {815be8be-7806-49a6-aa82-0786444f5d41}, !- Availability Manager List Name
  AutoSize,                               !- Design Supply Air Flow Rate {m3/s}
  BranchList {6cbf8227-c353-4478-aaff-15cbccd1d9cc}, !- Branch List Name
  ,                                       !- Connector List Name
  Node 11,                                !- Supply Side Inlet Node Name
  Node 14,                                !- Demand Side Outlet Node Name
  Node 13,                                !- Demand Side Inlet Node Names
  Node 12;                                !- Supply Side Outlet Node Names

Sizing:System,
  Air Loop HVAC 1,                        !- AirLoop Name
  Sensible,                               !- Type of Load to Size On
  Autosize,                               !- Design Outdoor Air Flow Rate {m3/s}
  0.3,                                    !- Minimum System Air Flow Ratio
  7,                                      !- Preheat Design Temperature {C}
  0.008,                                  !- Preheat Design Humidity Ratio {kgWater/kgDryAir}
  12.8,                                   !- Precool Design Temperature {C}
  0.008,                                  !- Precool Design Humidity Ratio {kgWater/kgDryAir}
  12.8,                                   !- Central Cooling Design Supply Air Temperature {C}
  12.8,                                   !- Central Heating Design Supply Air Temperature {C}
  NonCoincident,                          !- Sizing Option
  Yes,                                    !- 100% Outdoor Air in Cooling
  Yes,                                    !- 100% Outdoor Air in Heating
  0.0085,                                 !- Central Cooling Design Supply Air Humidity Ratio {kgWater/kgDryAir}
  0.008,                                  !- Central Heating Design Supply Air Humidity Ratio {kgWater/kgDryAir}
  DesignDay,                              !- Cooling Design Air Flow Method
  0,                                      !- Cooling Design Air Flow Rate {m3/s}
  DesignDay,                              !- Heating Design Air Flow Method
  0,                                      !- Heating Design Air Flow Rate {m3/s}
  ZoneSum;                                !- System Outdoor Air Method

AirLoopHVAC:ControllerList,
  Air Loop HVAC 1 Controllers,            !- Name
  Controller:WaterCoil,                   !- Controller Object Type 1
  Controller Water Coil 1;                !- Controller Name 1

Controller:WaterCoil,
  Controller Water Coil 1,                !- Name
  Temperature,                            !- Control Variable
  Normal,                                 !- Action
  Flow,                                   !- Actuator Variable
  Node 20,                                !- Sensor Node Name
  Node 26,                                !- Actuator Node Name
  Autosize,                               !- Controller Convergence Tolerance {deltaC}
  Autosize,                               !- Maximum Actuated Flow {m3/s}
  1e-07;                                  !- Minimum Actuated Flow {m3/s}

AvailabilityManagerAssignmentList,
  AvailabilityManagerAssignmentList {815be8be-7806-49a6-aa82-0786444f5d41}, !- Name
  AvailabilityManager:Scheduled,          !- Availability Manager Object Type 1
  AvailabilityManager:Scheduled {ac760e25-2c13-4958-b7b2-4483c16903dd}; !- Availability Manager Name 1

AvailabilityManager:Scheduled,
  AvailabilityManager:Scheduled {ac760e25-2c13-4958-b7b2-4483c16903dd}, !- Name
  Schedule:Compact {46136399-d2b8-4057-bd66-d2c38d9e9e63}; !- Schedule Name

Schedule:Compact,
  Schedule:Compact {46136399-d2b8-4057-bd66-d2c38d9e9e63}, !- Name
  ,                                       !- Schedule Type Limits Name
  Through: 12/31,                         !- Field 1
  For: AllDays,                           !- Field 2
  Until: 24:00,                           !- Field 3
  1.0;                                    !- Field 4

BranchList,
  BranchList {6cbf8227-c353-4478-aaff-15cbccd1d9cc}, !- Name
  Branch {6597914e-806d-4689-b489-34c1ed5e3a1e}; !- Branch Name 1

Branch,
  Branch {6597914e-806d-4689-b489-34c1ed5e3a1e}, !- Name
  AutoSize,                               !- Maximum Flow Rate {m3/s}
  ,                                       !- Pressure Drop Curve Name
  AirLoopHVAC:OutdoorAirSystem,           !- Component Object Type 1
  Air Loop HVAC Outdoor Air System 1,     !- Component Name 1
  Node 11,                                !- Component Inlet Node Name 1
  Node 18,                                !- Component Outlet Node Name 1
  Passive,                                !- Component Branch Control Type 1
  CoilSystem:Cooling:DX,                  !- Component Object Type 2
  Coil Cooling DX Two Speed 1 CoilSystem, !- Component Name 2
  Node 18,                                !- Component Inlet Node Name 2
  Node 19,                                !- Component Outlet Node Name 2
  Passive,                                !- Component Branch Control Type 2
  Coil:Heating:Water,                     !- Component Object Type 3
  Coil Heating Water 1,                   !- Component Name 3
  Node 19,                                !- Component Inlet Node Name 3
  Node 20,                                !- Component Outlet Node Name 3
  Passive,                                !- Component Branch Control Type 3
  Fan:VariableVolume,                     !- Component Object Type 4
  Fan Variable Volume 1,                  !- Component Name 4
  Node 20,                                !- Component Inlet Node Name 4
  Node 12,                                !- Component Outlet Node Name 4
  Passive;                                !- Component Branch Control Type 4

AirLoopHVAC:OutdoorAirSystem,
  Air Loop HVAC Outdoor Air System 1,     !- Name
  AirLoopHVAC:ControllerList {1800398c-29e2-41c0-9d57-35e679ca9e30}, !- Controller List Name
  AirLoopHVAC:OutdoorAirSystem:EquipmentList {7afdb6f6-b2ec-4bcc-9dea-95d8f6234d15}, !- Outdoor Air Equipment List Name
  AvailabilityManagerAssignmentList {d5c41650-8dbc-4c75-bebe-33c9fc6ecbcc}; !- Availability Manager List Name

AirLoopHVAC:ControllerList,
  AirLoopHVAC:ControllerList {1800398c-29e2-41c0-9d57-35e679ca9e30}, !- Name
  Controller:OutdoorAir,                  !- Controller Object Type 1
  Controller Outdoor Air 1;               !- Controller Name 1

Controller:OutdoorAir,
  Controller Outdoor Air 1,               !- Name
  Node 17,                                !- Relief Air Outlet Node Name
  Node 11,                                !- Return Air Node Name
  Node 18,                                !- Mixed Air Node Name
  Node 16,                                !- Actuator Node Name
  Autosize,                               !- Minimum Outdoor Air Flow Rate {m3/s}
  Autosize,                               !- Maximum Outdoor Air Flow Rate {m3/s}
  FixedDryBulb,                           !- Economizer Control Type
  ModulateFlow,                           !- Economizer Control Action Type
  30,                                     !- Economizer Maximum Limit Dry-Bulb Temperature {C}
  64000,                                  !- Economizer Maximum Limit Enthalpy {J/kg}
  ,                                       !- Economizer Maximum Limit Dewpoint Temperature {C}
  ,                                       !- Electronic Enthalpy Limit Curve Name
  -100,                                   !- Economizer Minimum Limit Dry-Bulb Temperature {C}
  NoLockout,                              !- Lockout Type
  FixedMinimum,                           !- Minimum Limit Type
  ,                                       !- Minimum Outdoor Air Schedule Name
  ,                                       !- Minimum Fraction of Outdoor Air Schedule Name
  ,                                       !- Maximum Fraction of Outdoor Air Schedule Name
  ,                                       !- Mechanical Ventilation Controller Name
  ,                                       !- Time of Day Economizer Control Schedule Name
  No,                                     !- High Humidity Control
  ,                                       !- Humidistat Control Zone Name
  ,                                       !- High Humidity Outdoor Air Flow Ratio
  Yes,                                    !- Control High Indoor Humidity Based on Outdoor Humidity Ratio
  BypassWhenOAFlowGreaterThanMinimum;     !- Heat Recovery Bypass Control Type

AvailabilityManagerAssignmentList,
  AvailabilityManagerAssignmentList {d5c41650-8dbc-4c75-bebe-33c9fc6ecbcc}, !- Name
  AvailabilityManager:Scheduled,          !- Availability Manager Object Type 1
  AvailabilityManager:Scheduled {243bed36-d840-4ba3-8d48-4d71437bddd5}; !- Availability Manager Name 1

AvailabilityManager:Scheduled,
  AvailabilityManager:Scheduled {243bed36-d840-4ba3-8d48-4d71437bddd5}, !- Name
  Schedule:Compact {7a8b1858-8e3c-436d-880f-875a275892bc}; !- Schedule Name

Schedule:Compact,
  Schedule:Compact {7a8b1858-8e3c-436d-880f-875a275892bc}, !- Name
  ,                                       !- Schedule Type Limits Name
  Through: 12/31,                         !- Field 1
  For: AllDays,                           !- Field 2
  Until: 24:00,                           !- Field 3
  1.0;                                    !- Field 4

OutdoorAir:NodeList,
  Node 16;                                !- Node or NodeList Name 1

AirLoopHVAC:OutdoorAirSystem:EquipmentList,
  AirLoopHVAC:OutdoorAirSystem:EquipmentList {7afdb6f6-b2ec-4bcc-9dea-95d8f6234d15}, !- Name
  OutdoorAir:Mixer,                       !- Component Object Type 1
  OutdoorAir:Mixer {a46e09c4-bb04-44f5-891c-68511d6b4578}; !- Component Name 1

OutdoorAir:Mixer,
  OutdoorAir:Mixer {a46e09c4-bb04-44f5-891c-68511d6b4578}, !- Name
  Node 18,                                !- Mixed Air Node Name
  Node 16,                                !- Outdoor Air Stream Node Name
  Node 17,                                !- Relief Air Stream Node Name
  Node 11;                                !- Return Air Stream Node Name

SetpointManager:MixedAir,
  Setpoint Manager Mixed Air 3,           !- Name
  Temperature,                            !- Control Variable
  Node 12,                                !- Reference Setpoint Node Name
  Node 20,                                !- Fan Inlet Node Name
  Node 12,                                !- Fan Outlet Node Name
  Node 18;                                !- Setpoint Node or NodeList Name

CoilSystem:Cooling:DX,
  Coil Cooling DX Two Speed 1 CoilSystem, !- Name
  Always_On,                              !- Availability Schedule Name
  Node 18,                                !- DX Cooling Coil System Inlet Node Name
  Node 19,                                !- DX Cooling Coil System Outlet Node Name
  Node 19,                                !- DX Cooling Coil System Sensor Node Name
  Coil:Cooling:DX:TwoSpeed,               !- Cooling Coil Object Type
  Coil Cooling DX Two Speed 1;            !- Cooling Coil Name

Coil:Cooling:DX:TwoSpeed,
  Coil Cooling DX Two Speed 1,            !- Name
  Always_On,                              !- Availability Schedule Name
  Autosize,                               !- Rated High Speed Total Cooling Capacity {W}
  Autosize,                               !- Rated High Speed Sensible Heat Ratio
  5.5,                                    !- Rated High Speed COP {W/W}
  Autosize,                               !- Rated High Speed Air Flow Rate {m3/s}
  ,                                       !- Unit Internal Static Air Pressure {Pa}
  Node 18,                                !- Air Inlet Node Name
  Node 19,                                !- Air Outlet Node Name
  Curve Biquadratic 1,                    !- Total Cooling Capacity Function of Temperature Curve Name
  Curve Quadratic 1,                      !- Total Cooling Capacity Function of Flow Fraction Curve Name
  Curve Biquadratic 2,                    !- Energy Input Ratio Function of Temperature Curve Name
  Curve Quadratic 2,                      !- Energy Input Ratio Function of Flow Fraction Curve Name
  Curve Quadratic 3,                      !- Part Load Fraction Correlation Curve Name
  Autosize,                               !- Rated Low Speed Total Cooling Capacity {W}
  0.69,                                   !- Rated Low Speed Sensible Heat Ratio
  6.6,                                    !- Rated Low Speed COP {W/W}
  Autosize,                               !- Rated Low Speed Air Flow Rate {m3/s}
  Curve Biquadratic 3,                    !- Low Speed Total Cooling Capacity Function of Temperature Curve Name
  Curve Biquadratic 4,                    !- Low Speed Energy Input Ratio Function of Temperature Curve Name
  ,                                       !- Condenser Air Inlet Node Name
  AirCooled,                              !- Condenser Type