
OS:Version,
  {e10fb8d0-fa30-4e75-a172-aa65c3651990}, !- Handle
  0.10.0;                                 !- Version Identifier

OS:BuildingStory,
  {154d68ee-1add-477e-b7bc-c2131310fcf8}, !- Handle
  Story 1,                                !- Name
  0,                                      !- Nominal Z Coordinate {m}
  4,                                      !- Nominal Floor to Floor Height {m}
  ,                                       !- Default Construction Set Name
  ,                                       !- Default Schedule Set Name
  ;                                       !- Group Rendering Name

OS:Space,
  {aec2649d-d560-47c0-b01b-f96ec67bb4b0}, !- Handle
  Story 1 West Perimeter Space,           !- Name
  ,                                       !- Space Type Name
  ,                                       !- Default Construction Set Name
  ,                                       !- Default Schedule Set Name
  -0,                                     !- Direction of Relative North {deg}
  0,                                      !- X Origin {m}
  0,                                      !- Y Origin {m}
  0,                                      !- Z Origin {m}
  {154d68ee-1add-477e-b7bc-c2131310fcf8}, !- Building Story Name
  {a5498202-7d23-4612-8ef6-0d85b7b74c42}; !- Thermal Zone Name

OS:Surface,
  {4d7dcc00-798f-4017-9e08-22906c44e298}, !- Handle
  Surface 1,                              !- Name
  Floor,                                  !- Surface Type
  ,                                       !- Construction Name
  {aec2649d-d560-47c0-b01b-f96ec67bb4b0}, !- Space Name
  Ground,                                 !- Outside Boundary Condition
  ,                                       !- Outside Boundary Condition Object
  NoSun,                                  !- Sun Exposure
  NoWind,                                 !- Wind Exposure
  ,                                       !- View Factor to Ground
  ,                                       !- Number of Vertices
  0, 0, 0,                                !- X,Y,Z Vertex 1 {m}
  0, 74.8331477354788, 0,                 !- X,Y,Z Vertex 2 {m}
  3, 71.8331477354788, 0,                 !- X,Y,Z Vertex 3 {m}
  3, 3, 0;                                !- X,Y,Z Vertex 4 {m}

OS:Surface,
  {6a4dbfc2-c1a0-486c-973c-7101e8dc017f}, !- Handle
  Surface 2,                              !- Name
  Wall,                                   !- Surface Type
  ,                                       !- Construction Name
  {aec2649d-d560-47c0-b01b-f96ec67bb4b0}, !- Space Name
  Outdoors,                               !- Outside Boundary Condition
  ,                                       !- Outside Boundary Condition Object
  SunExposed,                             !- Sun Exposure
  WindExposed,                            !- Wind Exposure
  ,                                       !- View Factor to Ground
  ,                                       !- Number of Vertices
  0, 74.8331477354788, 4,                 !- X,Y,Z Vertex 1 {m}
  0, 74.8331477354788, 0,                 !- X,Y,Z Vertex 2 {m}
  0, 0, 0,                                !- X,Y,Z Vertex 3 {m}
  0, 0, 4;                                !- X,Y,Z Vertex 4 {m}

OS:Surface,
  {79697f9e-33fb-4eb4-a5a3-ea4b3735c479}, !- Handle
  Surface 3,                              !- Name
  Wall,                                   !- Surface Type
  ,                                       !- Construction Name
  {aec2649d-d560-47c0-b01b-f96ec67bb4b0}, !- Space Name
  Surface,                                !- Outside Boundary Condition
  {793e7077-afc7-424f-a245-93229f499255}, !- Outside Boundary Condition Object
  NoSun,                                  !- Sun Exposure
  NoWind,                                 !- Wind Exposure
  ,                                       !- View Factor to Ground
  ,                                       !- Number of Vertices
  3, 71.8331477354788, 4,                 !- X,Y,Z Vertex 1 {m}
  3, 71.8331477354788, 0,                 !- X,Y,Z Vertex 2 {m}
  0, 74.8331477354788, 0,                 !- X,Y,Z Vertex 3 {m}
  0, 74.8331477354788, 4;                 !- X,Y,Z Vertex 4 {m}

OS:Surface,
  {ecc66407-d658-49ac-861f-580deccebef9}, !- Handle
  Surface 4,                              !- Name
  Wall,                                   !- Surface Type
  ,                                       !- Construction Name
  {aec2649d-d560-47c0-b01b-f96ec67bb4b0}, !- Space Name
  Surface,                                !- Outside Boundary Condition
  {c8d28bef-fee5-4dff-bb17-98607e278c6b}, !- Outside Boundary Condition Object
  NoSun,                                  !- Sun Exposure
  NoWind,                                 !- Wind Exposure
  ,                                       !- View Factor to Ground
  ,                                       !- Number of Vertices
  3, 3, 4,                                !- X,Y,Z Vertex 1 {m}
  3, 3, 0,                                !- X,Y,Z Vertex 2 {m}
  3, 71.8331477354788, 0,                 !- X,Y,Z Vertex 3 {m}
  3, 71.8331477354788, 4;                 !- X,Y,Z Vertex 4 {m}

OS:Surface,
  {5300f0ca-b435-45fa-98d3-596e009416f9}, !- Handle
  Surface 5,                              !- Name
  Wall,                                   !- Surface Type
  ,                                       !- Construction Name
  {aec2649d-d560-47c0-b01b-f96ec67bb4b0}, !- Space Name
  Surface,                                !- Outside Boundary Condition
  {2a8a0f48-876e-4e25-be26-a4869e0ced2a}, !- Outside Boundary Condition Object
  NoSun,                                  !- Sun Exposure
  NoWind,                                 !- Wind Exposure
  ,                                       !- View Factor to Ground
  ,                                       !- Number of Vertices
  0, 0, 4,                                !- X,Y,Z Vertex 1 {m}
  0, 0, 0,                                !- X,Y,Z Vertex 2 {m}
  3, 3, 0,                                !- X,Y,Z Vertex 3 {m}
  3, 3, 4;                                !- X,Y,Z Vertex 4 {m}

OS:Surface,
  {4f0380ff-cab4-4ab4-910d-58fa838a2cb2}, !- Handle
  Surface 6,                              !- Name
  RoofCeiling,                            !- Surface Type
  ,                                       !- Construction Name
  {aec2649d-d560-47c0-b01b-f96ec67bb4b0}, !- Space Name
  Surface,                                !- Outside Boundary Condition
  {7ba79f5b-a281-47d1-b261-c316dfc7c72b}, !- Outside Boundary Condition Object
  NoSun,                                  !- Sun Exposure
  NoWind,                                 !- Wind Exposure
  ,                                       !- View Factor to Ground
  ,                                       !- Number of Vertices
  3, 3, 4,                                !- X,Y,Z Vertex 1 {m}
  3, 71.8331477354788, 4,                 !- X,Y,Z Vertex 2 {m}
  0, 74.8331477354788, 4,                 !- X,Y,Z Vertex 3 {m}
  0, 0, 4;                                !- X,Y,Z Vertex 4 {m}

OS:Space,
  {85d34cbd-8426-470f-9428-aaac60abf6f6}, !- Handle
  Story 1 North Perimeter Space,          !- Name
  ,                                       !- Space Type Name
  ,                                       !- Default Construction Set Name
  ,                                       !- Default Schedule Set Name
  -0,                                     !- Direction of Relative North {deg}
  3,                                      !- X Origin {m}
  71.8331477354788,                       !- Y Origin {m}
  0,                                      !- Z Origin {m}
  {154d68ee-1add-477e-b7bc-c2131310fcf8}, !- Building Story Name
  {3dcfdef6-1cf1-4a8e-a31d-180d0ef26a17}; !- Thermal Zone Name

OS:Surface,
  {82f94b43-e74b-470f-b352-80ee079f3e4a}, !- Handle
  Surface 7,                              !- Name
  Floor,                                  !- Surface Type
  ,                                       !- Construction Name
  {85d34cbd-8426-470f-9428-aaac60abf6f6}, !- Space Name
  Ground,                                 !- Outside Boundary Condition
  ,                                       !- Outside Boundary Condition Object
  NoSun,                                  !- Sun Exposure
  NoWind,                                 !- Wind Exposure
  ,                                       !- View Factor to Ground
  ,                                       !- Number of Vertices
  -3, 2.99999999999997, 0,                !- X,Y,Z Vertex 1 {m}
  71.8331477354788, 2.99999999999997, 0,  !- X,Y,Z Vertex 2 {m}
  68.8331477354788, -2.8421709430404e-14, 0, !- X,Y,Z Vertex 3 {m}
  0, -2.8421709430404e-14, 0;             !- X,Y,Z Vertex 4 {m}

OS:Surface,
  {6a732a65-d0a3-4add-ae1b-3e137ccc6544}, !- Handle
  Surface 8,                              !- Name
  Wall,                                   !- Surface Type
  ,                                       !- Construction Name
  {85d34cbd-8426-470f-9428-aaac60abf6f6}, !- Space Name
  Outdoors,                               !- Outside Boundary Condition
  ,                                       !- Outside Boundary Condition Object
  SunExposed,                             !- Sun Exposure
  WindExposed,                            !- Wind Exposure
  ,                                       !- View Factor to Ground
  ,                                       !- Number of Vertices
  71.8331477354788, 2.99999999999997, 4,  !- X,Y,Z Vertex 1 {m}
  71.8331477354788, 2.99999999999997, 0,  !- X,Y,Z Vertex 2 {m}
  -3, 2.99999999999997, 0,                !- X,Y,Z Vertex 3 {m}
  -3, 2.99999999999997, 4;                !- X,Y,Z Vertex 4 {m}

OS:Surface,
  {35911531-660f-4247-85f1-4d204c6b7f1c}, !- Handle
  Surface 9,                              !- Name
  Wall,                                   !- Surface Type
  ,                                       !- Construction Name
  {85d34cbd-8426-470f-9428-aaac60abf6f6}, !- Space Name
  Surface,                                !- Outside Boundary Condition
  {97497d1e-3340-4c85-b59c-6921dc1d476d}, !- Outside Boundary Condition Object
  NoSun,                                  !- Sun Exposure
  NoWind,                                 !- Wind Exposure
  ,                                       !- View Factor to Ground
  ,                                       !- Number of Vertices
  68.8331477354788, -2.8421709430404e-14, 4, !- X,Y,Z Vertex 1 {m}
  68.8331477354788, -2.8421709430404e-14, 0, !- X,Y,Z Vertex 2 {m}
  71.8331477354788, 2.99999999999997, 0,  !- X,Y,Z Vertex 3 {m}
  71.8331477354788, 2.99999999999997, 4;  !- X,Y,Z Vertex 4 {m}

OS:Surface,
  {ce58df7f-0743-45a0-a6ff-f18f8212f2f3}, !- Handle
  Surface 10,                             !- Name
  Wall,                                   !- Surface Type
  ,                                       !- Construction Name
  {85d34cbd-8426-470f-9428-aaac60abf6f6}, !- Space Name
  Surface,                                !- Outside Boundary Condition
  {e33d6547-057d-4ea4-bd2f-bc8f1952a8a9}, !- Outside Boundary Condition Object
  NoSun,                                  !- Sun Exposure
  NoWind,                                 !- Wind Exposure
  ,                                       !- View Factor to Ground
  ,                                       !- Number of Vertices
  0, -2.8421709430404e-14, 4,             !- X,Y,Z Vertex 1 {m}
  0, -2.8421709430404e-14, 0,             !- X,Y,Z Vertex 2 {m}
  68.8331477354788, -2.8421709430404e-14, 0, !- X,Y,Z Vertex 3 {m}
  68.8331477354788, -2.8421709430404e-14, 4; !- X,Y,Z Vertex 4 {m}

OS:Surface,
  {793e7077-afc7-424f-a245-93229f499255}, !- Handle
  Surface 11,                             !- Name
  Wall,                                   !- Surface Type
  ,                                       !- Construction Name
  {85d34cbd-8426-470f-9428-aaac60abf6f6}, !- Space Name
  Surface,                                !- Outside Boundary Condition
  {79697f9e-33fb-4eb4-a5a3-ea4b3735c479}, !- Outside Boundary Condition Object
  NoSun,                                  !- Sun Exposure
  NoWind,                                 !- Wind Exposure
  ,                                       !- View Factor to Ground
  ,                                       !- Number of Vertices
  -3, 2.99999999999997, 4,                !- X,Y,Z Vertex 1 {m}
  -3, 2.99999999999997, 0,                !- X,Y,Z Vertex 2 {m}
  0, -2.8421709430404e-14, 0,             !- X,Y,Z Vertex 3 {m}
  0, -2.8421709430404e-14, 4;             !- X,Y,Z Vertex 4 {m}

OS:Surface,
  {5aeb3543-3a63-4b28-8cc6-724d92d73f68}, !- Handle
  Surface 12,                             !- Name
  RoofCeiling,                            !- Surface Type
  ,                                       !- Construction Name
  {85d34cbd-8426-470f-9428-aaac60abf6f6}, !- Space Name
  Surface,                                !- Outside Boundary Condition
  {8fcb8062-0723-4031-9f8e-abb788c0d4ce}, !- Outside Boundary Condition Object
  NoSun,                                  !- Sun Exposure
  NoWind,                                 !- Wind Exposure
  ,                                       !- View Factor to Ground
  ,                                       !- Number of Vertices
  0, -2.8421709430404e-14, 4,             !- X,Y,Z Vertex 1 {m}
  68.8331477354788, -2.8421709430404e-14, 4, !- X,Y,Z Vertex 2 {m}
  71.8331477354788, 2.99999999999997, 4,  !- X,Y,Z Vertex 3 {m}
  -3, 2.99999999999997, 4;                !- X,Y,Z Vertex 4 {m}

OS:Space,
  {cc64756d-4b64-4600-8489-789a9e19dfb8}, !- Handle
  Story 1 East Perimeter Space,           !- Name
  ,                                       !- Space Type Name
  ,                                       !- Default Construction Set Name
  ,                                       !- Default Schedule Set Name
  -0,                                     !- Direction of Relative North {deg}
  71.8331477354788,                       !- X Origin {m}
  3,                                      !- Y Origin {m}
  0,                                      !- Z Origin {m}
  {154d68ee-1add-477e-b7bc-c2131310fcf8}, !- Building Story Name
  {13f82c69-9e9d-49d0-b1a1-54cbe3b0ac33}; !- Thermal Zone Name

OS:Surface,
  {82f836bf-0ce7-4405-9a5f-b865072d6def}, !- Handle
  Surface 13,                             !- Name
  Floor,                                  !- Surface Type
  ,                                       !- Construction Name
  {cc64756d-4b64-4600-8489-789a9e19dfb8}, !- Space Name
  Ground,                                 !- Outside Boundary Condition
  ,                                       !- Outside Boundary Condition Object
  NoSun,                                  !- Sun Exposure
  NoWind,                                 !- Wind Exposure
  ,                                       !- View Factor to Ground
  ,                                       !- Number of Vertices
  2.99999999999999, 71.8331477354788, 0,  !- X,Y,Z Vertex 1 {m}
  2.99999999999999, -3, 0,                !- X,Y,Z Vertex 2 {m}
  -1.4210854715202e-14, 0, 0,             !- X,Y,Z Vertex 3 {m}
  -1.4210854715202e-14, 68.8331477354788, 0; !- X,Y,Z Vertex 4 {m}

OS:Surface,
  {3e490fb4-a6c4-457e-b10a-c8e8df74cd5a}, !- Handle
  Surface 14,                             !- Name
  Wall,                                   !- Surface Type
  ,                                       !- Construction Name
  {cc64756d-4b64-4600-8489-789a9e19dfb8}, !- Space Name
  Outdoors,                               !- Outside Boundary Condition
  ,                                       !- Outside Boundary Condition Object
  SunExposed,                             !- Sun Exposure
  WindExposed,                            !- Wind Exposure
  ,                                       !- View Factor to Ground
  ,                                       !- Number of Vertices
  2.99999999999999, -3, 4,                !- X,Y,Z Vertex 1 {m}
  2.99999999999999, -3, 0,                !- X,Y,Z Vertex 2 {m}
  2.99999999999999, 71.8331477354788, 0,  !- X,Y,Z Vertex 3 {m}
  2.99999999999999, 71.8331477354788, 4;  !- X,Y,Z Vertex 4 {m}

OS:Surface,
  {5147ae43-3f26-4cbb-89cf-8cfbcaa0ce84}, !- Handle
  Surface 15,                             !- Name
  Wall,                                   !- Surface Type
  ,                                       !- Construction Name
  {cc64756d-4b64-4600-8489-789a9e19dfb8}, !- Space Name
  Surface,                                !- Outside Boundary Condition
  {3b1d1001-cbb4-4c49-baaa-3ea71018af43}, !- Outside Boundary Condition Object
  NoSun,                                  !- Sun Exposure
  NoWind,                                 !- Wind Exposure
  ,                                       !- View Factor to Ground
  ,                                       !- Number of Vertices
  -1.4210854715202e-14, 0, 4,             !- X,Y,Z Vertex 1 {m}
  -1.4210854715202e-14, 0, 0,             !- X,Y,Z Vertex 2 {m}
  2.99999999999999, -3, 0,                !- X,Y,Z Vertex 3 {m}
  2.99999999999999, -3, 4;                !- X,Y,Z Vertex 4 {m}

OS:Surface,
  {76c98885-0e61-401e-a2e9-fb01daa504df}, !- Handle
  Surface 16,                             !- Name
  Wall,                                   !- Surface Type
  ,                                       !- Construction Name
  {cc64756d-4b64-4600-8489-789a9e19dfb8}, !- Space Name
  Surface,                                !- Outside Boundary Condition
  {cbffff10-a96c-46fe-b67d-800eac906966}, !- Outside Boundary Condition Object
  NoSun,                                  !- Sun Exposure
  NoWind,                                 !- Wind Exposure
  ,                                       !- View Factor to Ground
  ,                                       !- Number of Vertices
  -1.4210854715202e-14, 68.8331477354788, 4, !- X,Y,Z Vertex 1 {m}
  -1.4210854715202e-14, 68.8331477354788, 0, !- X,Y,Z Vertex 2 {m}
  -1.4210854715202e-14, 0, 0,             !- X,Y,Z Vertex 3 {m}
  -1.4210854715202e-14, 0, 4;             !- X,Y,Z Vertex 4 {m}

OS:Surface,
  {97497d1e-3340-4c85-b59c-6921dc1d476d}, !- Handle
  Surface 17,                             !- Name
  Wall,                                   !- Surface Type
  ,                                       !- Construction Name
  {cc64756d-4b64-4600-8489-789a9e19dfb8}, !- Space Name
  Surface,                                !- Outside Boundary Condition
  {35911531-660f-4247-85f1-4d204c6b7f1c}, !- Outside Boundary Condition Object
  NoSun,                                  !- Sun Exposure
  NoWind,                                 !- Wind Exposure
  ,                                       !- View Factor to Ground
  ,                                       !- Number of Vertices
  2.99999999999999, 71.8331477354788, 4,  !- X,Y,Z Vertex 1 {m}
  2.99999999999999, 71.8331477354788, 0,  !- X,Y,Z Vertex 2 {m}
  -1.4210854715202e-14, 68.8331477354788, 0, !- X,Y,Z Vertex 3 {m}
  -1.4210854715202e-14, 68.8331477354788, 4; !- X,Y,Z Vertex 4 {m}

OS:Surface,
  {ea69e961-c5a1-43aa-82c9-af4c8335456a}, !- Handle
  Surface 18,                             !- Name
  RoofCeiling,                            !- Surface Type
  ,                                       !- Construction Name
  {cc64756d-4b64-4600-8489-789a9e19dfb8}, !- Space Name
  Surface,                                !- Outside Boundary Condition
  {e5e3c95a-d0cb-4a97-92a8-f995b88c89c2}, !- Outside Boundary Condition Object
  NoSun,                                  !- Sun Exposure
  NoWind,                                 !- Wind Exposure
  ,                                       !- View Factor to Ground
  ,                                       !- Number of Vertices
  -1.4210854715202e-14, 68.8331477354788, 4, !- X,Y,Z Vertex 1 {m}
  -1.4210854715202e-14, 0, 4,             !- X,Y,Z Vertex 2 {m}
  2.99999999999999, -3, 4,                !- X,Y,Z Vertex 3 {m}
  2.99999999999999, 71.8331477354788, 4;  !- X,Y,Z Vertex 4 {m}

OS:Space,
  {73801b87-136f-46cc-8834-efcd4648249d}, !- Handle
  Story 1 South Perimeter Space,          !- Name
  ,                                       !- Space Type Name
  ,                                       !- Default Construction Set Name
  ,                                       !- Default Schedule Set Name
  -0,                                     !- Direction of Relative North {deg}
  0,                                      !- X Origin {m}
  0,                                      !- Y Origin {m}
  0,                                      !- Z Origin {m}
  {154d68ee-1add-477e-b7bc-c2131310fcf8}, !- Building Story Name
  {e82c273c-3237-4471-bb74-1147b7b7fb6c}; !- Thermal Zone Name

OS:Surface,
  {d1ff7649-69c1-4fec-9524-d83f8534888b}, !- Handle
  Surface 19,                             !- Name
  Floor,                                  !- Surface Type
  ,                                       !- Construction Name
  {73801b87-136f-46cc-8834-efcd4648249d}, !- Space Name
  Ground,                                 !- Outside Boundary Condition
  ,                                       !- Outside Boundary Condition Object
  NoSun,                                  !- Sun Exposure
  NoWind,                                 !- Wind Exposure
  ,                                       !- View Factor to Ground
  ,                                       !- Number of Vertices
  74.8331477354788, 0, 0,                 !- X,Y,Z Vertex 1 {m}
  0, 0, 0,                                !- X,Y,Z Vertex 2 {m}
  3, 3, 0,                                !- X,Y,Z Vertex 3 {m}
  71.8331477354788, 3, 0;                 !- X,Y,Z Vertex 4 {m}

OS:Surface,
  {f1c02e98-2005-4514-b1cb-f531b1fb825b}, !- Handle
  Surface 20,                             !- Name
  Wall,                                   !- Surface Type
  ,                                       !- Construction Name
  {73801b87-136f-46cc-8834-efcd4648249d}, !- Space Name
  Outdoors,                               !- Outside Boundary Condition
  ,                                       !- Outside Boundary Condition Object
  SunExposed,                             !- Sun Exposure
  WindExposed,                            !- Wind Exposure
  ,                                       !- View Factor to Ground
  ,                                       !- Number of Vertices
  0, 0, 4,                                !- X,Y,Z Vertex 1 {m}
  0, 0, 0,                                !- X,Y,Z Vertex 2 {m}
  74.8331477354788, 0, 0,                 !- X,Y,Z Vertex 3 {m}
  74.8331477354788, 0, 4;                 !- X,Y,Z Vertex 4 {m}

OS:Surface,
  {2a8a0f48-876e-4e25-be26-a4869e0ced2a}, !- Handle
  Surface 21,                             !- Name
  Wall,                                   !- Surface Type
  ,                                       !- Construction Name
  {73801b87-136f-46cc-8834-efcd4648249d}, !- Space Name
  Surface,                                !- Outside Boundary Condition
  {5300f0ca-b435-45fa-98d3-596e009416f9}, !- Outside Boundary Condition Object
  NoSun,                                  !- Sun Exposure
  NoWind,                                 !- Wind Exposure
  ,                                       !- View Factor to Ground
  ,                                       !- Number of Vertices
  3, 3, 4,                                !- X,Y,Z Vertex 1 {m}
  3, 3, 0,                                !- X,Y,Z Vertex 2 {m}
  0, 0, 0,                                !- X,Y,Z Vertex 3 {m}
  0, 0, 4;                                !- X,Y,Z Vertex 4 {m}

OS:Surface,
  {98371db7-2b8f-48ed-8814-ac1d90aeed00}, !- Handle
  Surface 22,                             !- Name
  Wall,                                   !- Surface Type
  ,                                       !- Construction Name
  {73801b87-136f-46cc-8834-efcd4648249d}, !- Space Name
  Surface,                                !- Outside Boundary Condition
  {ce88dba1-43b1-4a50-b32c-9f19820ae93b}, !- Outside Boundary Condition Object
  NoSun,                                  !- Sun Exposure
  NoWind,                                 !- Wind Exposure
  ,                                       !- View Factor to Ground
  ,                                       !- Number of Vertices
  71.8331477354788, 3, 4,                 !- X,Y,Z Vertex 1 {m}
  71.8331477354788, 3, 0,                 !- X,Y,Z Vertex 2 {m}
  3, 3, 0,                                !- X,Y,Z Vertex 3 {m}
  3, 3, 4;                                !- X,Y,Z Vertex 4 {m}

OS:Surface,
  {3b1d1001-cbb4-4c49-baaa-3ea71018af43}, !- Handle
  Surface 23,                             !- Name
  Wall,                                   !- Surface Type
  ,                                       !- Construction Name
  {73801b87-136f-46cc-8834-efcd4648249d}, !- Space Name
  Surface,                                !- Outside Boundary Condition
  {5147ae43-3f26-4cbb-89cf-8cfbcaa0ce84}, !- Outside Boundary Condition Object
  NoSun,                                  !- Sun Exposure
  NoWind,                                 !- Wind Exposure
  ,                                       !- View Factor to Ground
  ,                                       !- Number of Vertices
  74.8331477354788, 0, 4,                 !- X,Y,Z Vertex 1 {m}
  74.8331477354788, 0, 0,                 !- X,Y,Z Vertex 2 {m}
  71.8331477354788, 3, 0,                 !- X,Y,Z Vertex 3 {m}
  71.8331477354788, 3, 4;                 !- X,Y,Z Vertex 4 {m}

OS:Surface,
  {cebf049e-74ef-4efd-abf4-0aba8c1459b0}, !- Handle
  Surface 24,                             !- Name
  RoofCeiling,                            !- Surface Type
  ,                                       !- Construction Name
  {73801b87-136f-46cc-8834-efcd4648249d}, !- Space Name
  Surface,                                !- Outside Boundary Condition
  {c08d14cf-f4c4-4e01-a8dd-5999b375d65e}, !- Outside Boundary Condition Object
  NoSun,                                  !- Sun Exposure
  NoWind,                                 !- Wind Exposure
  ,                                       !- View Factor to Ground
  ,                                       !- Number of Vertices
  71.8331477354788, 3, 4,                 !- X,Y,Z Vertex 1 {m}
  3, 3, 4,                                !- X,Y,Z Vertex 2 {m}
  0, 0, 4,                                !- X,Y,Z Vertex 3 {m}
  74.8331477354788, 0, 4;                 !- X,Y,Z Vertex 4 {m}

OS:Space,
  {4f60c995-25f7-4276-a4dd-77977c72785a}, !- Handle
  Story 1 Core Space,                     !- Name
  ,                                       !- Space Type Name
  ,                                       !- Default Construction Set Name
  ,                                       !- Default Schedule Set Name
  -0,                                     !- Direction of Relative North {deg}
  3,                                      !- X Origin {m}
  3,                                      !- Y Origin {m}
  0,                                      !- Z Origin {m}
  {154d68ee-1add-477e-b7bc-c2131310fcf8}, !- Building Story Name
  {65aad2b5-ccd9-4631-b51d-9f6eb7d62ede}; !- Thermal Zone Name

OS:Surface,
  {420e7b8b-635d-4253-a001-e69a7b48363c}, !- Handle
  Surface 25,                             !- Name
  Floor,                                  !- Surface Type
  ,                                       !- Construction Name
  {4f60c995-25f7-4276-a4dd-77977c72785a}, !- Space Name
  Ground,                                 !- Outside Boundary Condition
  ,                                       !- Outside Boundary Condition Object
  NoSun,                                  !- Sun Exposure
  NoWind,                                 !- Wind Exposure
  ,                                       !- View Factor to Ground
  ,                                       !- Number of Vertices
  0, 0, 0,                                !- X,Y,Z Vertex 1 {m}
  0, 68.8331477354788, 0,                 !- X,Y,Z Vertex 2 {m}
  68.8331477354788, 68.8331477354788, 0,  !- X,Y,Z Vertex 3 {m}
  68.8331477354788, 0, 0;                 !- X,Y,Z Vertex 4 {m}

OS:Surface,
  {c8d28bef-fee5-4dff-bb17-98607e278c6b}, !- Handle
  Surface 26,                             !- Name
  Wall,                                   !- Surface Type
  ,                                       !- Construction Name
  {4f60c995-25f7-4276-a4dd-77977c72785a}, !- Space Name
  Surface,                                !- Outside Boundary Condition
  {ecc66407-d658-49ac-861f-580deccebef9}, !- Outside Boundary Condition Object
  NoSun,                                  !- Sun Exposure
  NoWind,                                 !- Wind Exposure
  ,                                       !- View Factor to Ground
  ,                                       !- Number of Vertices
  0, 68.8331477354788, 4,                 !- X,Y,Z Vertex 1 {m}
  0, 68.8331477354788, 0,                 !- X,Y,Z Vertex 2 {m}
  0, 0, 0,                                !- X,Y,Z Vertex 3 {m}
  0, 0, 4;                                !- X,Y,Z Vertex 4 {m}

OS:Surface,
  {e33d6547-057d-4ea4-bd2f-bc8f1952a8a9}, !- Handle
  Surface 27,                             !- Name
  Wall,                                   !- Surface Type
  ,                                       !- Construction Name
  {4f60c995-25f7-4276-a4dd-77977c72785a}, !- Space Name
  Surface,                                !- Outside Boundary Condition
  {ce58df7f-0743-45a0-a6ff-f18f8212f2f3}, !- Outside Boundary Condition Object
  NoSun,                                  !- Sun Exposure
  NoWind,                                 !- Wind Exposure
  ,                                       !- View Factor to Ground
  ,                                       !- Number of Vertices
  68.8331477354788, 68.8331477354788, 4,  !- X,Y,Z Vertex 1 {m}
  68.8331477354788, 68.8331477354788, 0,  !- X,Y,Z Vertex 2 {m}
  0, 68.8331477354788, 0,                 !- X,Y,Z Vertex 3 {m}
  0, 68.8331477354788, 4;                 !- X,Y,Z Vertex 4 {m}

OS:Surface,
  {cbffff10-a96c-46fe-b67d-800eac906966}, !- Handle
  Surface 28,                             !- Name
  Wall,                                   !- Surface Type
  ,                                       !- Construction Name