
OS:Version,
  {019ff3d9-f926-41c6-840c-6cec6b44f04d}, !- Handle
  0.10.0;                                 !- Version Identifier

OS:BuildingStory,
  {0006b0c2-b979-4205-bdf3-6ed78fc9a4bf}, !- Handle
  Story 1,                                !- Name
  0,                                      !- Nominal Z Coordinate {m}
  4,                                      !- Nominal Floor to Floor Height {m}
  ,                                       !- Default Construction Set Name
  ,                                       !- Default Schedule Set Name
  ;                                       !- Group Rendering Name

OS:Space,
  {3177a302-9457-4892-8c73-b4f2c3dc6542}, !- Handle
  Story 1 West Perimeter Space,           !- Name
  ,                                       !- Space Type Name
  ,                                       !- Default Construction Set Name
  ,                                       !- Default Schedule Set Name
  -0,                                     !- Direction of Relative North {deg}
  0,                                      !- X Origin {m}
  0,                                      !- Y Origin {m}
  0,                                      !- Z Origin {m}
  {0006b0c2-b979-4205-bdf3-6ed78fc9a4bf}, !- Building Story Name
  {36374404-1c4e-45d6-9654-1571a70fd7fc}; !- Thermal Zone Name

OS:Surface,
  {33c96169-d403-4963-8ca4-a3e42771e5da}, !- Handle
  Surface 1,                              !- Name
  Floor,                                  !- Surface Type
  ,                                       !- Construction Name
  {3177a302-9457-4892-8c73-b4f2c3dc6542}, !- Space Name
  Ground,                                 !- Outside Boundary Condition
  ,                                       !- Outside Boundary Condition Object
  NoSun,                                  !- Sun Exposure
  NoWind,                                 !- Wind Exposure
  ,                                       !- View Factor to Ground
  ,                                       !- Number of Vertices
  0, 0, 0,                                !- X,Y,Z Vertex 1 {m}
  0, 8.66025403784439, 0,                 !- X,Y,Z Vertex 2 {m}
  3, 5.66025403784439, 0,                 !- X,Y,Z Vertex 3 {m}
  3, 3, 0;                                !- X,Y,Z Vertex 4 {m}

OS:Surface,
  {d7732c30-6d7a-4e42-a1d4-902e8fca4922}, !- Handle
  Surface 2,                              !- Name
  Wall,                                   !- Surface Type
  ,                                       !- Construction Name
  {3177a302-9457-4892-8c73-b4f2c3dc6542}, !- Space Name
  Outdoors,                               !- Outside Boundary Condition
  ,                                       !- Outside Boundary Condition Object
  SunExposed,                             !- Sun Exposure
  WindExposed,                            !- Wind Exposure
  ,                                       !- View Factor to Ground
  ,                                       !- Number of Vertices
  0, 8.66025403784439, 4,                 !- X,Y,Z Vertex 1 {m}
  0, 8.66025403784439, 0,                 !- X,Y,Z Vertex 2 {m}
  0, 0, 0,                                !- X,Y,Z Vertex 3 {m}
  0, 0, 4;                                !- X,Y,Z Vertex 4 {m}

OS:Surface,
  {cab03baf-e597-4b1b-b014-16b61094b063}, !- Handle
  Surface 3,                              !- Name
  Wall,                                   !- Surface Type
  ,                                       !- Construction Name
  {3177a302-9457-4892-8c73-b4f2c3dc6542}, !- Space Name
  Surface,                                !- Outside Boundary Condition
  {ed11c8e6-7a43-4485-ac8d-195832dedbbd}, !- Outside Boundary Condition Object
  NoSun,                                  !- Sun Exposure
  NoWind,                                 !- Wind Exposure
  ,                                       !- View Factor to Ground
  ,                                       !- Number of Vertices
  3, 5.66025403784439, 4,                 !- X,Y,Z Vertex 1 {m}
  3, 5.66025403784439, 0,                 !- X,Y,Z Vertex 2 {m}
  0, 8.66025403784439, 0,                 !- X,Y,Z Vertex 3 {m}
  0, 8.66025403784439, 4;                 !- X,Y,Z Vertex 4 {m}

OS:Surface,
  {fa3fba6a-b4e7-4f49-8a77-04e138d8be2b}, !- Handle
  Surface 4,                              !- Name
  Wall,                                   !- Surface Type
  ,                                       !- Construction Name
  {3177a302-9457-4892-8c73-b4f2c3dc6542}, !- Space Name
  Surface,                                !- Outside Boundary Condition
  {6c2e69fc-d861-4d5d-8e36-d2f214425f36}, !- Outside Boundary Condition Object
  NoSun,                                  !- Sun Exposure
  NoWind,                                 !- Wind Exposure
  ,                                       !- View Factor to Ground
  ,                                       !- Number of Vertices
  3, 3, 4,                                !- X,Y,Z Vertex 1 {m}
  3, 3, 0,                                !- X,Y,Z Vertex 2 {m}
  3, 5.66025403784439, 0,                 !- X,Y,Z Vertex 3 {m}
  3, 5.66025403784439, 4;                 !- X,Y,Z Vertex 4 {m}

OS:Surface,
  {1987a5ee-bc27-417f-8974-e880a0d14d25}, !- Handle
  Surface 5,                              !- Name
  Wall,                                   !- Surface Type
  ,                                       !- Construction Name
  {3177a302-9457-4892-8c73-b4f2c3dc6542}, !- Space Name
  Surface,                                !- Outside Boundary Condition
  {3875c0d2-8e06-4c34-9c34-133a79ae12cb}, !- Outside Boundary Condition Object
  NoSun,                                  !- Sun Exposure
  NoWind,                                 !- Wind Exposure
  ,                                       !- View Factor to Ground
  ,                                       !- Number of Vertices
  0, 0, 4,                                !- X,Y,Z Vertex 1 {m}
  0, 0, 0,                                !- X,Y,Z Vertex 2 {m}
  3, 3, 0,                                !- X,Y,Z Vertex 3 {m}
  3, 3, 4;                                !- X,Y,Z Vertex 4 {m}

OS:Surface,
  {f3c942af-877c-403a-83ed-15034b0e8906}, !- Handle
  Surface 6,                              !- Name
  RoofCeiling,                            !- Surface Type
  ,                                       !- Construction Name
  {3177a302-9457-4892-8c73-b4f2c3dc6542}, !- Space Name
  Outdoors,                               !- Outside Boundary Condition
  ,                                       !- Outside Boundary Condition Object
  SunExposed,                             !- Sun Exposure
  WindExposed,                            !- Wind Exposure
  ,                                       !- View Factor to Ground
  ,                                       !- Number of Vertices
  3, 3, 4,                                !- X,Y,Z Vertex 1 {m}
  3, 5.66025403784439, 4,                 !- X,Y,Z Vertex 2 {m}
  0, 8.66025403784439, 4,                 !- X,Y,Z Vertex 3 {m}
  0, 0, 4;                                !- X,Y,Z Vertex 4 {m}

OS:Space,
  {a37399e3-3d24-4fdb-9892-b7b93a5775f9}, !- Handle
  Story 1 North Perimeter Space,          !- Name
  ,                                       !- Space Type Name
  ,                                       !- Default Construction Set Name
  ,                                       !- Default Schedule Set Name
  -0,                                     !- Direction of Relative North {deg}
  3,                                      !- X Origin {m}
  5.66025403784439,                       !- Y Origin {m}
  0,                                      !- Z Origin {m}
  {0006b0c2-b979-4205-bdf3-6ed78fc9a4bf}, !- Building Story Name
  {9499a5ee-3eec-4553-aaca-8034dec56fa3}; !- Thermal Zone Name

OS:Surface,
  {61fd0ef8-9468-40eb-92ad-bd0065fcf3a3}, !- Handle
  Surface 7,                              !- Name
  Floor,                                  !- Surface Type
  ,                                       !- Construction Name
  {a37399e3-3d24-4fdb-9892-b7b93a5775f9}, !- Space Name
  Ground,                                 !- Outside Boundary Condition
  ,                                       !- Outside Boundary Condition Object
  NoSun,                                  !- Sun Exposure
  NoWind,                                 !- Wind Exposure
  ,                                       !- View Factor to Ground
  ,                                       !- Number of Vertices
  -3, 3, 0,                               !- X,Y,Z Vertex 1 {m}
  5.66025403784439, 3, 0,                 !- X,Y,Z Vertex 2 {m}
  2.66025403784439, 2.66453525910038e-15, 0, !- X,Y,Z Vertex 3 {m}
  0, 2.66453525910038e-15, 0;             !- X,Y,Z Vertex 4 {m}

OS:Surface,
  {43fd9163-9704-423c-87e3-06212a6eb4b1}, !- Handle
  Surface 8,                              !- Name
  Wall,                                   !- Surface Type
  ,                                       !- Construction Name
  {a37399e3-3d24-4fdb-9892-b7b93a5775f9}, !- Space Name
  Outdoors,                               !- Outside Boundary Condition
  ,                                       !- Outside Boundary Condition Object
  SunExposed,                             !- Sun Exposure
  WindExposed,                            !- Wind Exposure
  ,                                       !- View Factor to Ground
  ,                                       !- Number of Vertices
  5.66025403784439, 3, 4,                 !- X,Y,Z Vertex 1 {m}
  5.66025403784439, 3, 0,                 !- X,Y,Z Vertex 2 {m}
  -3, 3, 0,                               !- X,Y,Z Vertex 3 {m}
  -3, 3, 4;                               !- X,Y,Z Vertex 4 {m}

OS:Surface,
  {ec6a6fff-8681-493a-aff8-f234587055ba}, !- Handle
  Surface 9,                              !- Name
  Wall,                                   !- Surface Type
  ,                                       !- Construction Name
  {a37399e3-3d24-4fdb-9892-b7b93a5775f9}, !- Space Name
  Surface,                                !- Outside Boundary Condition
  {e03284de-b88c-4c5c-a69f-18fcccdd74f2}, !- Outside Boundary Condition Object
  NoSun,                                  !- Sun Exposure
  NoWind,                                 !- Wind Exposure
  ,                                       !- View Factor to Ground
  ,                                       !- Number of Vertices
  2.66025403784439, 2.66453525910038e-15, 4, !- X,Y,Z Vertex 1 {m}
  2.66025403784439, 2.66453525910038e-15, 0, !- X,Y,Z Vertex 2 {m}
  5.66025403784439, 3, 0,                 !- X,Y,Z Vertex 3 {m}
  5.66025403784439, 3, 4;                 !- X,Y,Z Vertex 4 {m}

OS:Surface,
  {34f27d4c-a225-4087-9b43-3dd4b8c908f8}, !- Handle
  Surface 10,                             !- Name
  Wall,                                   !- Surface Type
  ,                                       !- Construction Name
  {a37399e3-3d24-4fdb-9892-b7b93a5775f9}, !- Space Name
  Surface,                                !- Outside Boundary Condition
  {0f768055-d45d-4d16-90cd-88e1f57f2824}, !- Outside Boundary Condition Object
  NoSun,                                  !- Sun Exposure
  NoWind,                                 !- Wind Exposure
  ,                                       !- View Factor to Ground
  ,                                       !- Number of Vertices
  0, 2.66453525910038e-15, 4,             !- X,Y,Z Vertex 1 {m}
  0, 2.66453525910038e-15, 0,             !- X,Y,Z Vertex 2 {m}
  2.66025403784439, 2.66453525910038e-15, 0, !- X,Y,Z Vertex 3 {m}
  2.66025403784439, 2.66453525910038e-15, 4; !- X,Y,Z Vertex 4 {m}

OS:Surface,
  {ed11c8e6-7a43-4485-ac8d-195832dedbbd}, !- Handle
  Surface 11,                             !- Name
  Wall,                                   !- Surface Type
  ,                                       !- Construction Name
  {a37399e3-3d24-4fdb-9892-b7b93a5775f9}, !- Space Name
  Surface,                                !- Outside Boundary Condition
  {cab03baf-e597-4b1b-b014-16b61094b063}, !- Outside Boundary Condition Object
  NoSun,                                  !- Sun Exposure
  NoWind,                                 !- Wind Exposure
  ,                                       !- View Factor to Ground
  ,                                       !- Number of Vertices
  -3, 3, 4,                               !- X,Y,Z Vertex 1 {m}
  -3, 3, 0,                               !- X,Y,Z Vertex 2 {m}
  0, 2.66453525910038e-15, 0,             !- X,Y,Z Vertex 3 {m}
  0, 2.66453525910038e-15, 4;             !- X,Y,Z Vertex 4 {m}

OS:Surface,
  {20758640-5aa5-4fde-b28e-dd2a20f23817}, !- Handle
  Surface 12,                             !- Name
  RoofCeiling,                            !- Surface Type
  ,                                       !- Construction Name
  {a37399e3-3d24-4fdb-9892-b7b93a5775f9}, !- Space Name
  Outdoors,                               !- Outside Boundary Condition
  ,                                       !- Outside Boundary Condition Object
  SunExposed,                             !- Sun Exposure
  WindExposed,                            !- Wind Exposure
  ,                                       !- View Factor to Ground
  ,                                       !- Number of Vertices
  0, 2.66453525910038e-15, 4,             !- X,Y,Z Vertex 1 {m}
  2.66025403784439, 2.66453525910038e-15, 4, !- X,Y,Z Vertex 2 {m}
  5.66025403784439, 3, 4,                 !- X,Y,Z Vertex 3 {m}
  -3, 3, 4;                               !- X,Y,Z Vertex 4 {m}

OS:Space,
  {a676cf98-5ee7-4df3-b927-8ba5b60941a5}, !- Handle
  Story 1 East Perimeter Space,           !- Name
  ,                                       !- Space Type Name
  ,                                       !- Default Construction Set Name
  ,                                       !- Default Schedule Set Name
  -0,                                     !- Direction of Relative North {deg}
  5.66025403784439,                       !- X Origin {m}
  3,                                      !- Y Origin {m}
  0,                                      !- Z Origin {m}
  {0006b0c2-b979-4205-bdf3-6ed78fc9a4bf}, !- Building Story Name
  {95876bd4-61e2-44a3-8840-aa41ac876db4}; !- Thermal Zone Name

OS:Surface,
  {46db3686-0737-425e-895e-7b57850c11b8}, !- Handle
  Surface 13,                             !- Name
  Floor,                                  !- Surface Type
  ,                                       !- Construction Name
  {a676cf98-5ee7-4df3-b927-8ba5b60941a5}, !- Space Name
  Ground,                                 !- Outside Boundary Condition
  ,                                       !- Outside Boundary Condition Object
  NoSun,                                  !- Sun Exposure
  NoWind,                                 !- Wind Exposure
  ,                                       !- View Factor to Ground
  ,                                       !- Number of Vertices
  3, 5.66025403784439, 0,                 !- X,Y,Z Vertex 1 {m}
  3, -3, 0,                               !- X,Y,Z Vertex 2 {m}
  2.66453525910038e-15, 0, 0,             !- X,Y,Z Vertex 3 {m}
  2.66453525910038e-15, 2.66025403784439, 0; !- X,Y,Z Vertex 4 {m}

OS:Surface,
  {c8f98e51-204b-4f1f-b311-df86690b276e}, !- Handle
  Surface 14,                             !- Name
  Wall,                                   !- Surface Type
  ,                                       !- Construction Name
  {a676cf98-5ee7-4df3-b927-8ba5b60941a5}, !- Space Name
  Outdoors,                               !- Outside Boundary Condition
  ,                                       !- Outside Boundary Condition Object
  SunExposed,                             !- Sun Exposure
  WindExposed,                            !- Wind Exposure
  ,                                       !- View Factor to Ground
  ,                                       !- Number of Vertices
  3, -3, 4,                               !- X,Y,Z Vertex 1 {m}
  3, -3, 0,                               !- X,Y,Z Vertex 2 {m}
  3, 5.66025403784439, 0,                 !- X,Y,Z Vertex 3 {m}
  3, 5.66025403784439, 4;                 !- X,Y,Z Vertex 4 {m}

OS:Surface,
  {fec1fc6f-8bf5-42e9-b129-083d0cc48b10}, !- Handle
  Surface 15,                             !- Name
  Wall,                                   !- Surface Type
  ,                                       !- Construction Name
  {a676cf98-5ee7-4df3-b927-8ba5b60941a5}, !- Space Name
  Surface,                                !- Outside Boundary Condition
  {35c70785-7ef4-4de1-9924-8baded23063d}, !- Outside Boundary Condition Object
  NoSun,                                  !- Sun Exposure
  NoWind,                                 !- Wind Exposure
  ,                                       !- View Factor to Ground
  ,                                       !- Number of Vertices
  2.66453525910038e-15, 0, 4,             !- X,Y,Z Vertex 1 {m}
  2.66453525910038e-15, 0, 0,             !- X,Y,Z Vertex 2 {m}
  3, -3, 0,                               !- X,Y,Z Vertex 3 {m}
  3, -3, 4;                               !- X,Y,Z Vertex 4 {m}

OS:Surface,
  {2e1821f1-3ad8-409e-b60c-f9d2874b15e2}, !- Handle
  Surface 16,                             !- Name
  Wall,                                   !- Surface Type
  ,                                       !- Construction Name
  {a676cf98-5ee7-4df3-b927-8ba5b60941a5}, !- Space Name
  Surface,                                !- Outside Boundary Condition
  {6b888ed9-3ade-4c2f-8926-f49bca1e837e}, !- Outside Boundary Condition Object
  NoSun,                                  !- Sun Exposure
  NoWind,                                 !- Wind Exposure
  ,                                       !- View Factor to Ground
  ,                                       !- Number of Vertices
  2.66453525910038e-15, 2.66025403784439, 4, !- X,Y,Z Vertex 1 {m}
  2.66453525910038e-15, 2.66025403784439, 0, !- X,Y,Z Vertex 2 {m}
  2.66453525910038e-15, 0, 0,             !- X,Y,Z Vertex 3 {m}
  2.66453525910038e-15, 0, 4;             !- X,Y,Z Vertex 4 {m}

OS:Surface,
  {e03284de-b88c-4c5c-a69f-18fcccdd74f2}, !- Handle
  Surface 17,                             !- Name
  Wall,                                   !- Surface Type
  ,                                       !- Construction Name
  {a676cf98-5ee7-4df3-b927-8ba5b60941a5}, !- Space Name
  Surface,                                !- Outside Boundary Condition
  {ec6a6fff-8681-493a-aff8-f234587055ba}, !- Outside Boundary Condition Object
  NoSun,                                  !- Sun Exposure
  NoWind,                                 !- Wind Exposure
  ,                                       !- View Factor to Ground
  ,                                       !- Number of Vertices
  3, 5.66025403784439, 4,                 !- X,Y,Z Vertex 1 {m}
  3, 5.66025403784439, 0,                 !- X,Y,Z Vertex 2 {m}
  2.66453525910038e-15, 2.66025403784439, 0, !- X,Y,Z Vertex 3 {m}
  2.66453525910038e-15, 2.66025403784439, 4; !- X,Y,Z Vertex 4 {m}

OS:Surface,
  {2ad39a1a-c73e-4305-9305-fe614e3c793e}, !- Handle
  Surface 18,                             !- Name
  RoofCeiling,                            !- Surface Type
  ,                                       !- Construction Name
  {a676cf98-5ee7-4df3-b927-8ba5b60941a5}, !- Space Name
  Outdoors,                               !- Outside Boundary Condition
  ,                                       !- Outside Boundary Condition Object
  SunExposed,                             !- Sun Exposure
  WindExposed,                            !- Wind Exposure
  ,                                       !- View Factor to Ground
  ,                                       !- Number of Vertices
  2.66453525910038e-15, 2.66025403784439, 4, !- X,Y,Z Vertex 1 {m}
  2.66453525910038e-15, 0, 4,             !- X,Y,Z Vertex 2 {m}
  3, -3, 4,                               !- X,Y,Z Vertex 3 {m}
  3, 5.66025403784439, 4;                 !- X,Y,Z Vertex 4 {m}

OS:Space,
  {d9044b34-03b2-4819-9905-92efcdcc665b}, !- Handle
  Story 1 South Perimeter Space,          !- Name
  ,                                       !- Space Type Name
  ,                                       !- Default Construction Set Name
  ,                                       !- Default Schedule Set Name
  -0,                                     !- Direction of Relative North {deg}
  0,                                      !- X Origin {m}
  0,                                      !- Y Origin {m}
  0,                                      !- Z Origin {m}
  {0006b0c2-b979-4205-bdf3-6ed78fc9a4bf}, !- Building Story Name
  {8afdc80f-d675-4be4-97d4-a92c95d3c114}; !- Thermal Zone Name

OS:Surface,
  {91498e5c-4dfe-4823-bab2-592d9b65446e}, !- Handle
  Surface 19,                             !- Name
  Floor,                                  !- Surface Type
  ,                                       !- Construction Name
  {d9044b34-03b2-4819-9905-92efcdcc665b}, !- Space Name
  Ground,                                 !- Outside Boundary Condition
  ,                                       !- Outside Boundary Condition Object
  NoSun,                                  !- Sun Exposure
  NoWind,                                 !- Wind Exposure
  ,                                       !- View Factor to Ground
  ,                                       !- Number of Vertices
  8.66025403784439, 0, 0,                 !- X,Y,Z Vertex 1 {m}
  0, 0, 0,                                !- X,Y,Z Vertex 2 {m}
  3, 3, 0,                                !- X,Y,Z Vertex 3 {m}
  5.66025403784439, 3, 0;                 !- X,Y,Z Vertex 4 {m}

OS:Surface,
  {c10fbde6-71ce-4d04-a0af-b91433289a5b}, !- Handle
  Surface 20,                             !- Name
  Wall,                                   !- Surface Type
  ,                                       !- Construction Name
  {d9044b34-03b2-4819-9905-92efcdcc665b}, !- Space Name
  Outdoors,                               !- Outside Boundary Condition
  ,                                       !- Outside Boundary Condition Object
  SunExposed,                             !- Sun Exposure
  WindExposed,                            !- Wind Exposure
  ,                                       !- View Factor to Ground
  ,                                       !- Number of Vertices
  0, 0, 4,                                !- X,Y,Z Vertex 1 {m}
  0, 0, 0,                                !- X,Y,Z Vertex 2 {m}
  8.66025403784439, 0, 0,                 !- X,Y,Z Vertex 3 {m}
  8.66025403784439, 0, 4;                 !- X,Y,Z Vertex 4 {m}

OS:Surface,
  {3875c0d2-8e06-4c34-9c34-133a79ae12cb}, !- Handle
  Surface 21,                             !- Name
  Wall,                                   !- Surface Type
  ,                                       !- Construction Name
  {d9044b34-03b2-4819-9905-92efcdcc665b}, !- Space Name
  Surface,                                !- Outside Boundary Condition
  {1987a5ee-bc27-417f-8974-e880a0d14d25}, !- Outside Boundary Condition Object
  NoSun,                                  !- Sun Exposure
  NoWind,                                 !- Wind Exposure
  ,                                       !- View Factor to Ground
  ,                                       !- Number of Vertices
  3, 3, 4,                                !- X,Y,Z Vertex 1 {m}
  3, 3, 0,                                !- X,Y,Z Vertex 2 {m}
  0, 0, 0,                                !- X,Y,Z Vertex 3 {m}
  0, 0, 4;                                !- X,Y,Z Vertex 4 {m}

OS:Surface,
  {83dd91e2-9d84-4519-8122-97eed5a1b95c}, !- Handle
  Surface 22,                             !- Name
  Wall,                                   !- Surface Type
  ,                                       !- Construction Name
  {d9044b34-03b2-4819-9905-92efcdcc665b}, !- Space Name
  Surface,                                !- Outside Boundary Condition
  {a0a55e2c-202a-4d6c-8dd5-7188aa122119}, !- Outside Boundary Condition Object
  NoSun,                                  !- Sun Exposure
  NoWind,                                 !- Wind Exposure
  ,                                       !- View Factor to Ground
  ,                                       !- Number of Vertices
  5.66025403784439, 3, 4,                 !- X,Y,Z Vertex 1 {m}
  5.66025403784439, 3, 0,                 !- X,Y,Z Vertex 2 {m}
  3, 3, 0,                                !- X,Y,Z Vertex 3 {m}
  3, 3, 4;                                !- X,Y,Z Vertex 4 {m}

OS:Surface,
  {35c70785-7ef4-4de1-9924-8baded23063d}, !- Handle
  Surface 23,                             !- Name
  Wall,                                   !- Surface Type
  ,                                       !- Construction Name
  {d9044b34-03b2-4819-9905-92efcdcc665b}, !- Space Name
  Surface,                                !- Outside Boundary Condition
  {fec1fc6f-8bf5-42e9-b129-083d0cc48b10}, !- Outside Boundary Condition Object
  NoSun,                                  !- Sun Exposure
  NoWind,                                 !- Wind Exposure
  ,                                       !- View Factor to Ground
  ,                                       !- Number of Vertices
  8.66025403784439, 0, 4,                 !- X,Y,Z Vertex 1 {m}
  8.66025403784439, 0, 0,                 !- X,Y,Z Vertex 2 {m}
  5.66025403784439, 3, 0,                 !- X,Y,Z Vertex 3 {m}
  5.66025403784439, 3, 4;                 !- X,Y,Z Vertex 4 {m}

OS:Surface,
  {9864812b-ead5-42c3-9af8-03dad28cd76a}, !- Handle
  Surface 24,                             !- Name
  RoofCeiling,                            !- Surface Type
  ,                                       !- Construction Name
  {d9044b34-03b2-4819-9905-92efcdcc665b}, !- Space Name
  Outdoors,                               !- Outside Boundary Condition
  ,                                       !- Outside Boundary Condition Object
  SunExposed,                             !- Sun Exposure
  WindExposed,                            !- Wind Exposure
  ,                                       !- View Factor to Ground
  ,                                       !- Number of Vertices
  5.66025403784439, 3, 4,                 !- X,Y,Z Vertex 1 {m}
  3, 3, 4,                                !- X,Y,Z Vertex 2 {m}
  0, 0, 4,                                !- X,Y,Z Vertex 3 {m}
  8.66025403784439, 0, 4;                 !- X,Y,Z Vertex 4 {m}

OS:Space,
  {bfed71b7-35da-4ac5-96e3-de0cd95794eb}, !- Handle
  Story 1 Core Space,                     !- Name
  ,                                       !- Space Type Name
  ,                                       !- Default Construction Set Name
  ,                                       !- Default Schedule Set Name
  -0,                                     !- Direction of Relative North {deg}
  3,                                      !- X Origin {m}
  3,                                      !- Y Origin {m}
  0,                                      !- Z Origin {m}
  {0006b0c2-b979-4205-bdf3-6ed78fc9a4bf}, !- Building Story Name
  {416e1f74-50f0-4de1-b919-15cff4796966}; !- Thermal Zone Name

OS:Surface,
  {b6099760-8817-494e-aa2f-6732a0450667}, !- Handle
  Surface 25,                             !- Name
  Floor,                                  !- Surface Type
  ,                                       !- Construction Name
  {bfed71b7-35da-4ac5-96e3-de0cd95794eb}, !- Space Name
  Ground,                                 !- Outside Boundary Condition
  ,                                       !- Outside Boundary Condition Object
  NoSun,                                  !- Sun Exposure
  NoWind,                                 !- Wind Exposure
  ,                                       !- View Factor to Ground
  ,                                       !- Number of Vertices
  0, 0, 0,                                !- X,Y,Z Vertex 1 {m}
  0, 2.66025403784439, 0,                 !- X,Y,Z Vertex 2 {m}
  2.66025403784439, 2.66025403784439, 0,  !- X,Y,Z Vertex 3 {m}
  2.66025403784439, 0, 0;                 !- X,Y,Z Vertex 4 {m}

OS:Surface,
  {6c2e69fc-d861-4d5d-8e36-d2f214425f36}, !- Handle
  Surface 26,                             !- Name
  Wall,                                   !- Surface Type
  ,                                       !- Construction Name
  {bfed71b7-35da-4ac5-96e3-de0cd95794eb}, !- Space Name
  Surface,                                !- Outside Boundary Condition
  {fa3fba6a-b4e7-4f49-8a77-04e138d8be2b}, !- Outside Boundary Condition Object
  NoSun,                                  !- Sun Exposure
  NoWind,                                 !- Wind Exposure
  ,                                       !- View Factor to Ground
  ,                                       !- Number of Vertices
  0, 2.66025403784439, 4,                 !- X,Y,Z Vertex 1 {m}
  0, 2.66025403784439, 0,                 !- X,Y,Z Vertex 2 {m}
  0, 0, 0,                                !- X,Y,Z Vertex 3 {m}
  0, 0, 4;                                !- X,Y,Z Vertex 4 {m}

OS:Surface,
  {0f768055-d45d-4d16-90cd-88e1f57f2824}, !- Handle
  Surface 27,                             !- Name
  Wall,                                   !- Surface Type
  ,                                       !- Construction Name
  {bfed71b7-35da-4ac5-96e3-de0cd95794eb}, !- Space Name
  Surface,                                !- Outside Boundary Condition
  {34f27d4c-a225-4087-9b43-3dd4b8c908f8}, !- Outside Boundary Condition Object
  NoSun,                                  !- Sun Exposure
  NoWind,                                 !- Wind Exposure
  ,                                       !- View Factor to Ground
  ,                                       !- Number of Vertices
  2.66025403784439, 2.66025403784439, 4,  !- X,Y,Z Vertex 1 {m}
  2.66025403784439, 2.66025403784439, 0,  !- X,Y,Z Vertex 2 {m}
  0, 2.66025403784439, 0,                 !- X,Y,Z Vertex 3 {m}
  0, 2.66025403784439, 4;                 !- X,Y,Z Vertex 4 {m}

OS:Surface,
  {6b888ed9-3ade-4c2f-8926-f49bca1e837e}, !- Handle
  Surface 28,                             !- Name
  Wall,                                   !- Surface Type
  ,                                       !- Construction Name