
OS:Version,
  {9ca0629f-6a6a-4251-a344-359b797c4b0e}, !- Handle
  0.10.0;                                 !- Version Identifier

OS:BuildingStory,
  {87438d67-82f2-4dff-86f8-2fc80fa57472}, !- Handle
  Story 1,                                !- Name
  0,                                      !- Nominal Z Coordinate {m}
  4,                                      !- Nominal Floor to Floor Height {m}
  ,                                       !- Default Construction Set Name
  ,                                       !- Default Schedule Set Name
  ;                                       !- Group Rendering Name

OS:Space,
  {00bf4201-a0eb-4b23-a347-c2b693acb843}, !- Handle
  Story 1 West Perimeter Space,           !- Name
  ,                                       !- Space Type Name
  ,                                       !- Default Construction Set Name
  ,                                       !- Default Schedule Set Name
  -0,                                     !- Direction of Relative North {deg}
  0,                                      !- X Origin {m}
  0,                                      !- Y Origin {m}
  0,                                      !- Z Origin {m}
  {87438d67-82f2-4dff-86f8-2fc80fa57472}, !- Building Story Name
  {ad52c292-6331-434e-b6bc-39d519ace10d}; !- Thermal Zone Name

OS:Surface,
  {7e1af34e-60eb-4872-9797-ceb666069430}, !- Handle
  Surface 1,                              !- Name
  Floor,                                  !- Surface Type
  ,                                       !- Construction Name
  {00bf4201-a0eb-4b23-a347-c2b693acb843}, !- Space Name
  Ground,                                 !- Outside Boundary Condition
  ,                                       !- Outside Boundary Condition Object
  NoSun,                                  !- Sun Exposure
  NoWind,                                 !- Wind Exposure
  ,                                       !- View Factor to Ground
  ,                                       !- Number of Vertices
  0, 0, 0,                                !- X,Y,Z Vertex 1 {m}
  0, 10, 0,                               !- X,Y,Z Vertex 2 {m}
  3, 7, 0,                                !- X,Y,Z Vertex 3 {m}
  3, 3, 0;                                !- X,Y,Z Vertex 4 {m}

OS:Surface,
  {4b684927-6362-47ce-b516-9404c5a487df}, !- Handle
  Surface 2,                              !- Name
  Wall,                                   !- Surface Type
  ,                                       !- Construction Name
  {00bf4201-a0eb-4b23-a347-c2b693acb843}, !- Space Name
  Outdoors,                               !- Outside Boundary Condition
  ,                                       !- Outside Boundary Condition Object
  SunExposed,                             !- Sun Exposure
  WindExposed,                            !- Wind Exposure
  ,                                       !- View Factor to Ground
  ,                                       !- Number of Vertices
  0, 10, 4,                               !- X,Y,Z Vertex 1 {m}
  0, 10, 0,                               !- X,Y,Z Vertex 2 {m}
  0, 0, 0,                                !- X,Y,Z Vertex 3 {m}
  0, 0, 4;                                !- X,Y,Z Vertex 4 {m}

OS:Surface,
  {dfdecf13-80e9-432f-ab96-d3e4950f9ea9}, !- Handle
  Surface 3,                              !- Name
  Wall,                                   !- Surface Type
  ,                                       !- Construction Name
  {00bf4201-a0eb-4b23-a347-c2b693acb843}, !- Space Name
  Surface,                                !- Outside Boundary Condition
  {d96b0041-30e4-4af2-b804-fc97225e669a}, !- Outside Boundary Condition Object
  NoSun,                                  !- Sun Exposure
  NoWind,                                 !- Wind Exposure
  ,                                       !- View Factor to Ground
  ,                                       !- Number of Vertices
  3, 7, 4,                                !- X,Y,Z Vertex 1 {m}
  3, 7, 0,                                !- X,Y,Z Vertex 2 {m}
  0, 10, 0,                               !- X,Y,Z Vertex 3 {m}
  0, 10, 4;                               !- X,Y,Z Vertex 4 {m}

OS:Surface,
  {ec8821c6-fb59-402e-a6d8-2b319b9e3cf7}, !- Handle
  Surface 4,                              !- Name
  Wall,                                   !- Surface Type
  ,                                       !- Construction Name
  {00bf4201-a0eb-4b23-a347-c2b693acb843}, !- Space Name
  Surface,                                !- Outside Boundary Condition
  {8d40b194-411d-47a1-ad1c-4fe83bca147e}, !- Outside Boundary Condition Object
  NoSun,                                  !- Sun Exposure
  NoWind,                                 !- Wind Exposure
  ,                                       !- View Factor to Ground
  ,                                       !- Number of Vertices
  3, 3, 4,                                !- X,Y,Z Vertex 1 {m}
  3, 3, 0,                                !- X,Y,Z Vertex 2 {m}
  3, 7, 0,                                !- X,Y,Z Vertex 3 {m}
  3, 7, 4;                                !- X,Y,Z Vertex 4 {m}

OS:Surface,
  {4da26986-fc31-4a97-9860-1e63aae12bb6}, !- Handle
  Surface 5,                              !- Name
  Wall,                                   !- Surface Type
  ,                                       !- Construction Name
  {00bf4201-a0eb-4b23-a347-c2b693acb843}, !- Space Name
  Surface,                                !- Outside Boundary Condition
  {5007db1c-e21d-461a-9b51-b23eb6e8a344}, !- Outside Boundary Condition Object
  NoSun,                                  !- Sun Exposure
  NoWind,                                 !- Wind Exposure
  ,                                       !- View Factor to Ground
  ,                                       !- Number of Vertices
  0, 0, 4,                                !- X,Y,Z Vertex 1 {m}
  0, 0, 0,                                !- X,Y,Z Vertex 2 {m}
  3, 3, 0,                                !- X,Y,Z Vertex 3 {m}
  3, 3, 4;                                !- X,Y,Z Vertex 4 {m}

OS:Surface,
  {27e452aa-66b6-492c-b47d-83b5d7d68d04}, !- Handle
  Surface 6,                              !- Name
  RoofCeiling,                            !- Surface Type
  ,                                       !- Construction Name
  {00bf4201-a0eb-4b23-a347-c2b693acb843}, !- Space Name
  Outdoors,                               !- Outside Boundary Condition
  ,                                       !- Outside Boundary Condition Object
  SunExposed,                             !- Sun Exposure
  WindExposed,                            !- Wind Exposure
  ,                                       !- View Factor to Ground
  ,                                       !- Number of Vertices
  3, 3, 4,                                !- X,Y,Z Vertex 1 {m}
  3, 7, 4,                                !- X,Y,Z Vertex 2 {m}
  0, 10, 4,                               !- X,Y,Z Vertex 3 {m}
  0, 0, 4;                                !- X,Y,Z Vertex 4 {m}

OS:Space,
  {e6ecad49-188d-4b72-a4cc-b77837458f33}, !- Handle
  Story 1 North Perimeter Space,          !- Name
  ,                                       !- Space Type Name
  ,                                       !- Default Construction Set Name
  ,                                       !- Default Schedule Set Name
  -0,                                     !- Direction of Relative North {deg}
  3,                                      !- X Origin {m}
  7,                                      !- Y Origin {m}
  0,                                      !- Z Origin {m}
  {87438d67-82f2-4dff-86f8-2fc80fa57472}, !- Building Story Name
  {e9823bd4-8719-42f9-a666-5446c1cfe7a5}; !- Thermal Zone Name

OS:Surface,
  {7ff6718e-c26a-479e-bb07-c77977b36331}, !- Handle
  Surface 7,                              !- Name
  Floor,                                  !- Surface Type
  ,                                       !- Construction Name
  {e6ecad49-188d-4b72-a4cc-b77837458f33}, !- Space Name
  Ground,                                 !- Outside Boundary Condition
  ,                                       !- Outside Boundary Condition Object
  NoSun,                                  !- Sun Exposure
  NoWind,                                 !- Wind Exposure
  ,                                       !- View Factor to Ground
  ,                                       !- Number of Vertices
  -3, 3, 0,                               !- X,Y,Z Vertex 1 {m}
  7, 3, 0,                                !- X,Y,Z Vertex 2 {m}
  4, 0, 0,                                !- X,Y,Z Vertex 3 {m}
  0, 0, 0;                                !- X,Y,Z Vertex 4 {m}

OS:Surface,
  {5a60b209-5fda-4399-a315-2da379fc2c21}, !- Handle
  Surface 8,                              !- Name
  Wall,                                   !- Surface Type
  ,                                       !- Construction Name
  {e6ecad49-188d-4b72-a4cc-b77837458f33}, !- Space Name
  Outdoors,                               !- Outside Boundary Condition
  ,                                       !- Outside Boundary Condition Object
  SunExposed,                             !- Sun Exposure
  WindExposed,                            !- Wind Exposure
  ,                                       !- View Factor to Ground
  ,                                       !- Number of Vertices
  7, 3, 4,                                !- X,Y,Z Vertex 1 {m}
  7, 3, 0,                                !- X,Y,Z Vertex 2 {m}
  -3, 3, 0,                               !- X,Y,Z Vertex 3 {m}
  -3, 3, 4;                               !- X,Y,Z Vertex 4 {m}

OS:Surface,
  {2b7986a5-b1fc-407c-8e22-ea2746cc87e7}, !- Handle
  Surface 9,                              !- Name
  Wall,                                   !- Surface Type
  ,                                       !- Construction Name
  {e6ecad49-188d-4b72-a4cc-b77837458f33}, !- Space Name
  Surface,                                !- Outside Boundary Condition
  {0a10cf54-f717-4aec-a473-0697d7d23262}, !- Outside Boundary Condition Object
  NoSun,                                  !- Sun Exposure
  NoWind,                                 !- Wind Exposure
  ,                                       !- View Factor to Ground
  ,                                       !- Number of Vertices
  4, 0, 4,                                !- X,Y,Z Vertex 1 {m}
  4, 0, 0,                                !- X,Y,Z Vertex 2 {m}
  7, 3, 0,                                !- X,Y,Z Vertex 3 {m}
  7, 3, 4;                                !- X,Y,Z Vertex 4 {m}

OS:Surface,
  {166dac2e-b393-43d0-8a1c-41a9a243a574}, !- Handle
  Surface 10,                             !- Name
  Wall,                                   !- Surface Type
  ,                                       !- Construction Name
  {e6ecad49-188d-4b72-a4cc-b77837458f33}, !- Space Name
  Surface,                                !- Outside Boundary Condition
  {34b16401-e6c3-4b1f-ba48-651508e6555e}, !- Outside Boundary Condition Object
  NoSun,                                  !- Sun Exposure
  NoWind,                                 !- Wind Exposure
  ,                                       !- View Factor to Ground
  ,                                       !- Number of Vertices
  0, 0, 4,                                !- X,Y,Z Vertex 1 {m}
  0, 0, 0,                                !- X,Y,Z Vertex 2 {m}
  4, 0, 0,                                !- X,Y,Z Vertex 3 {m}
  4, 0, 4;                                !- X,Y,Z Vertex 4 {m}

OS:Surface,
  {d96b0041-30e4-4af2-b804-fc97225e669a}, !- Handle
  Surface 11,                             !- Name
  Wall,                                   !- Surface Type
  ,                                       !- Construction Name
  {e6ecad49-188d-4b72-a4cc-b77837458f33}, !- Space Name
  Surface,                                !- Outside Boundary Condition
  {dfdecf13-80e9-432f-ab96-d3e4950f9ea9}, !- Outside Boundary Condition Object
  NoSun,                                  !- Sun Exposure
  NoWind,                                 !- Wind Exposure
  ,                                       !- View Factor to Ground
  ,                                       !- Number of Vertices
  -3, 3, 4,                               !- X,Y,Z Vertex 1 {m}
  -3, 3, 0,                               !- X,Y,Z Vertex 2 {m}
  0, 0, 0,                                !- X,Y,Z Vertex 3 {m}
  0, 0, 4;                                !- X,Y,Z Vertex 4 {m}

OS:Surface,
  {4e9acbca-f18f-454d-9e17-50c1a2ed1901}, !- Handle
  Surface 12,                             !- Name
  RoofCeiling,                            !- Surface Type
  ,                                       !- Construction Name
  {e6ecad49-188d-4b72-a4cc-b77837458f33}, !- Space Name
  Outdoors,                               !- Outside Boundary Condition
  ,                                       !- Outside Boundary Condition Object
  SunExposed,                             !- Sun Exposure
  WindExposed,                            !- Wind Exposure
  ,                                       !- View Factor to Ground
  ,                                       !- Number of Vertices
  0, 0, 4,                                !- X,Y,Z Vertex 1 {m}
  4, 0, 4,                                !- X,Y,Z Vertex 2 {m}
  7, 3, 4,                                !- X,Y,Z Vertex 3 {m}
  -3, 3, 4;                               !- X,Y,Z Vertex 4 {m}

OS:Space,
  {39ad245a-54ce-48e7-9b0e-6f80ff568345}, !- Handle
  Story 1 East Perimeter Space,           !- Name
  ,                                       !- Space Type Name
  ,                                       !- Default Construction Set Name
  ,                                       !- Default Schedule Set Name
  -0,                                     !- Direction of Relative North {deg}
  7,                                      !- X Origin {m}
  3,                                      !- Y Origin {m}
  0,                                      !- Z Origin {m}
  {87438d67-82f2-4dff-86f8-2fc80fa57472}, !- Building Story Name
  {92884d15-6b72-48f6-a347-c48a540f7e46}; !- Thermal Zone Name

OS:Surface,
  {dc96a879-3995-4c54-bd10-73f54d23e262}, !- Handle
  Surface 13,                             !- Name
  Floor,                                  !- Surface Type
  ,                                       !- Construction Name
  {39ad245a-54ce-48e7-9b0e-6f80ff568345}, !- Space Name
  Ground,                                 !- Outside Boundary Condition
  ,                                       !- Outside Boundary Condition Object
  NoSun,                                  !- Sun Exposure
  NoWind,                                 !- Wind Exposure
  ,                                       !- View Factor to Ground
  ,                                       !- Number of Vertices
  3, 7, 0,                                !- X,Y,Z Vertex 1 {m}
  3, -3, 0,                               !- X,Y,Z Vertex 2 {m}
  0, 0, 0,                                !- X,Y,Z Vertex 3 {m}
  0, 4, 0;                                !- X,Y,Z Vertex 4 {m}

OS:Surface,
  {4a3b260f-d6eb-4d7a-a096-044db8fca89e}, !- Handle
  Surface 14,                             !- Name
  Wall,                                   !- Surface Type
  ,                                       !- Construction Name
  {39ad245a-54ce-48e7-9b0e-6f80ff568345}, !- Space Name
  Outdoors,                               !- Outside Boundary Condition
  ,                                       !- Outside Boundary Condition Object
  SunExposed,                             !- Sun Exposure
  WindExposed,                            !- Wind Exposure
  ,                                       !- View Factor to Ground
  ,                                       !- Number of Vertices
  3, -3, 4,                               !- X,Y,Z Vertex 1 {m}
  3, -3, 0,                               !- X,Y,Z Vertex 2 {m}
  3, 7, 0,                                !- X,Y,Z Vertex 3 {m}
  3, 7, 4;                                !- X,Y,Z Vertex 4 {m}

OS:Surface,
  {dee865ac-e236-4083-8831-616ce769cc2d}, !- Handle
  Surface 15,                             !- Name
  Wall,                                   !- Surface Type
  ,                                       !- Construction Name
  {39ad245a-54ce-48e7-9b0e-6f80ff568345}, !- Space Name
  Surface,                                !- Outside Boundary Condition
  {eaa12414-4970-43c2-8a6a-2b5055d54c3c}, !- Outside Boundary Condition Object
  NoSun,                                  !- Sun Exposure
  NoWind,                                 !- Wind Exposure
  ,                                       !- View Factor to Ground
  ,                                       !- Number of Vertices
  0, 0, 4,                                !- X,Y,Z Vertex 1 {m}
  0, 0, 0,                                !- X,Y,Z Vertex 2 {m}
  3, -3, 0,                               !- X,Y,Z Vertex 3 {m}
  3, -3, 4;                               !- X,Y,Z Vertex 4 {m}

OS:Surface,
  {075bf7d4-6fa8-4084-9429-cb39ac6eb377}, !- Handle
  Surface 16,                             !- Name
  Wall,                                   !- Surface Type
  ,                                       !- Construction Name
  {39ad245a-54ce-48e7-9b0e-6f80ff568345}, !- Space Name
  Surface,                                !- Outside Boundary Condition
  {e338c5f0-d396-47c2-b5ab-64520fb1ae79}, !- Outside Boundary Condition Object
  NoSun,                                  !- Sun Exposure
  NoWind,                                 !- Wind Exposure
  ,                                       !- View Factor to Ground
  ,                                       !- Number of Vertices
  0, 4, 4,                                !- X,Y,Z Vertex 1 {m}
  0, 4, 0,                                !- X,Y,Z Vertex 2 {m}
  0, 0, 0,                                !- X,Y,Z Vertex 3 {m}
  0, 0, 4;                                !- X,Y,Z Vertex 4 {m}

OS:Surface,
  {0a10cf54-f717-4aec-a473-0697d7d23262}, !- Handle
  Surface 17,                             !- Name
  Wall,                                   !- Surface Type
  ,                                       !- Construction Name
  {39ad245a-54ce-48e7-9b0e-6f80ff568345}, !- Space Name
  Surface,                                !- Outside Boundary Condition
  {2b7986a5-b1fc-407c-8e22-ea2746cc87e7}, !- Outside Boundary Condition Object
  NoSun,                                  !- Sun Exposure
  NoWind,                                 !- Wind Exposure
  ,                                       !- View Factor to Ground
  ,                                       !- Number of Vertices
  3, 7, 4,                                !- X,Y,Z Vertex 1 {m}
  3, 7, 0,                                !- X,Y,Z Vertex 2 {m}
  0, 4, 0,                                !- X,Y,Z Vertex 3 {m}
  0, 4, 4;                                !- X,Y,Z Vertex 4 {m}

OS:Surface,
  {9157a451-75cc-40de-a867-136cfeafedec}, !- Handle
  Surface 18,                             !- Name
  RoofCeiling,                            !- Surface Type
  ,                                       !- Construction Name
  {39ad245a-54ce-48e7-9b0e-6f80ff568345}, !- Space Name
  Outdoors,                               !- Outside Boundary Condition
  ,                                       !- Outside Boundary Condition Object
  SunExposed,                             !- Sun Exposure
  WindExposed,                            !- Wind Exposure
  ,                                       !- View Factor to Ground
  ,                                       !- Number of Vertices
  0, 4, 4,                                !- X,Y,Z Vertex 1 {m}
  0, 0, 4,                                !- X,Y,Z Vertex 2 {m}
  3, -3, 4,                               !- X,Y,Z Vertex 3 {m}
  3, 7, 4;                                !- X,Y,Z Vertex 4 {m}

OS:Space,
  {8b0f2c34-1ad3-4e7a-bf5b-b11713fd3374}, !- Handle
  Story 1 South Perimeter Space,          !- Name
  ,                                       !- Space Type Name
  ,                                       !- Default Construction Set Name
  ,                                       !- Default Schedule Set Name
  -0,                                     !- Direction of Relative North {deg}
  0,                                      !- X Origin {m}
  0,                                      !- Y Origin {m}
  0,                                      !- Z Origin {m}
  {87438d67-82f2-4dff-86f8-2fc80fa57472}, !- Building Story Name
  {501896c3-418b-4110-ba70-55d91b0e3325}; !- Thermal Zone Name

OS:Surface,
  {d35bc971-19fc-406d-89f8-5037f269076e}, !- Handle
  Surface 19,                             !- Name
  Floor,                                  !- Surface Type
  ,                                       !- Construction Name
  {8b0f2c34-1ad3-4e7a-bf5b-b11713fd3374}, !- Space Name
  Ground,                                 !- Outside Boundary Condition
  ,                                       !- Outside Boundary Condition Object
  NoSun,                                  !- Sun Exposure
  NoWind,                                 !- Wind Exposure
  ,                                       !- View Factor to Ground
  ,                                       !- Number of Vertices
  10, 0, 0,                               !- X,Y,Z Vertex 1 {m}
  0, 0, 0,                                !- X,Y,Z Vertex 2 {m}
  3, 3, 0,                                !- X,Y,Z Vertex 3 {m}
  7, 3, 0;                                !- X,Y,Z Vertex 4 {m}

OS:Surface,
  {a362ba66-a01f-4588-8616-6b6aa17e5397}, !- Handle
  Surface 20,                             !- Name
  Wall,                                   !- Surface Type
  ,                                       !- Construction Name
  {8b0f2c34-1ad3-4e7a-bf5b-b11713fd3374}, !- Space Name
  Outdoors,                               !- Outside Boundary Condition
  ,                                       !- Outside Boundary Condition Object
  SunExposed,                             !- Sun Exposure
  WindExposed,                            !- Wind Exposure
  ,                                       !- View Factor to Ground
  ,                                       !- Number of Vertices
  0, 0, 4,                                !- X,Y,Z Vertex 1 {m}
  0, 0, 0,                                !- X,Y,Z Vertex 2 {m}
  10, 0, 0,                               !- X,Y,Z Vertex 3 {m}
  10, 0, 4;                               !- X,Y,Z Vertex 4 {m}

OS:Surface,
  {5007db1c-e21d-461a-9b51-b23eb6e8a344}, !- Handle
  Surface 21,                             !- Name
  Wall,                                   !- Surface Type
  ,                                       !- Construction Name
  {8b0f2c34-1ad3-4e7a-bf5b-b11713fd3374}, !- Space Name
  Surface,                                !- Outside Boundary Condition
  {4da26986-fc31-4a97-9860-1e63aae12bb6}, !- Outside Boundary Condition Object
  NoSun,                                  !- Sun Exposure
  NoWind,                                 !- Wind Exposure
  ,                                       !- View Factor to Ground
  ,                                       !- Number of Vertices
  3, 3, 4,                                !- X,Y,Z Vertex 1 {m}
  3, 3, 0,                                !- X,Y,Z Vertex 2 {m}
  0, 0, 0,                                !- X,Y,Z Vertex 3 {m}
  0, 0, 4;                                !- X,Y,Z Vertex 4 {m}

OS:Surface,
  {13803d3f-1f06-4bc7-983b-d72750f49f34}, !- Handle
  Surface 22,                             !- Name
  Wall,                                   !- Surface Type
  ,                                       !- Construction Name
  {8b0f2c34-1ad3-4e7a-bf5b-b11713fd3374}, !- Space Name
  Surface,                                !- Outside Boundary Condition
  {34ff9c3b-15be-469b-bec3-9f33275d3f7e}, !- Outside Boundary Condition Object
  NoSun,                                  !- Sun Exposure
  NoWind,                                 !- Wind Exposure
  ,                                       !- View Factor to Ground
  ,                                       !- Number of Vertices
  7, 3, 4,                                !- X,Y,Z Vertex 1 {m}
  7, 3, 0,                                !- X,Y,Z Vertex 2 {m}
  3, 3, 0,                                !- X,Y,Z Vertex 3 {m}
  3, 3, 4;                                !- X,Y,Z Vertex 4 {m}

OS:Surface,
  {eaa12414-4970-43c2-8a6a-2b5055d54c3c}, !- Handle
  Surface 23,                             !- Name
  Wall,                                   !- Surface Type
  ,                                       !- Construction Name
  {8b0f2c34-1ad3-4e7a-bf5b-b11713fd3374}, !- Space Name
  Surface,                                !- Outside Boundary Condition
  {dee865ac-e236-4083-8831-616ce769cc2d}, !- Outside Boundary Condition Object
  NoSun,                                  !- Sun Exposure
  NoWind,                                 !- Wind Exposure
  ,                                       !- View Factor to Ground
  ,                                       !- Number of Vertices
  10, 0, 4,                               !- X,Y,Z Vertex 1 {m}
  10, 0, 0,                               !- X,Y,Z Vertex 2 {m}
  7, 3, 0,                                !- X,Y,Z Vertex 3 {m}
  7, 3, 4;                                !- X,Y,Z Vertex 4 {m}

OS:Surface,
  {61f57576-00e7-4569-9bb8-af71d5a4d604}, !- Handle
  Surface 24,                             !- Name
  RoofCeiling,                            !- Surface Type
  ,                                       !- Construction Name
  {8b0f2c34-1ad3-4e7a-bf5b-b11713fd3374}, !- Space Name
  Outdoors,                               !- Outside Boundary Condition
  ,                                       !- Outside Boundary Condition Object
  SunExposed,                             !- Sun Exposure
  WindExposed,                            !- Wind Exposure
  ,                                       !- View Factor to Ground
  ,                                       !- Number of Vertices
  7, 3, 4,                                !- X,Y,Z Vertex 1 {m}
  3, 3, 4,                                !- X,Y,Z Vertex 2 {m}
  0, 0, 4,                                !- X,Y,Z Vertex 3 {m}
  10, 0, 4;                               !- X,Y,Z Vertex 4 {m}

OS:Space,
  {e5f6c95e-e6bb-456c-904f-c29f911cdb52}, !- Handle
  Story 1 Core Space,                     !- Name
  ,                                       !- Space Type Name
  ,                                       !- Default Construction Set Name
  ,                                       !- Default Schedule Set Name
  -0,                                     !- Direction of Relative North {deg}
  3,                                      !- X Origin {m}
  3,                                      !- Y Origin {m}
  0,                                      !- Z Origin {m}
  {87438d67-82f2-4dff-86f8-2fc80fa57472}, !- Building Story Name
  {9394a325-f462-4b75-9121-ca14a2958ae0}; !- Thermal Zone Name

OS:Surface,
  {24b5553d-088b-40a7-a615-5e20e1fd5d1f}, !- Handle
  Surface 25,                             !- Name
  Floor,                                  !- Surface Type
  ,                                       !- Construction Name
  {e5f6c95e-e6bb-456c-904f-c29f911cdb52}, !- Space Name
  Ground,                                 !- Outside Boundary Condition
  ,                                       !- Outside Boundary Condition Object
  NoSun,                                  !- Sun Exposure
  NoWind,                                 !- Wind Exposure
  ,                                       !- View Factor to Ground
  ,                                       !- Number of Vertices
  0, 0, 0,                                !- X,Y,Z Vertex 1 {m}
  0, 4, 0,                                !- X,Y,Z Vertex 2 {m}
  4, 4, 0,                                !- X,Y,Z Vertex 3 {m}
  4, 0, 0;                                !- X,Y,Z Vertex 4 {m}

OS:Surface,
  {8d40b194-411d-47a1-ad1c-4fe83bca147e}, !- Handle
  Surface 26,                             !- Name
  Wall,                                   !- Surface Type
  ,                                       !- Construction Name
  {e5f6c95e-e6bb-456c-904f-c29f911cdb52}, !- Space Name
  Surface,                                !- Outside Boundary Condition
  {ec8821c6-fb59-402e-a6d8-2b319b9e3cf7}, !- Outside Boundary Condition Object
  NoSun,                                  !- Sun Exposure
  NoWind,                                 !- Wind Exposure
  ,                                       !- View Factor to Ground
  ,                                       !- Number of Vertices
  0, 4, 4,                                !- X,Y,Z Vertex 1 {m}
  0, 4, 0,                                !- X,Y,Z Vertex 2 {m}
  0, 0, 0,                                !- X,Y,Z Vertex 3 {m}
  0, 0, 4;                                !- X,Y,Z Vertex 4 {m}

OS:Surface,
  {34b16401-e6c3-4b1f-ba48-651508e6555e}, !- Handle
  Surface 27,                             !- Name
  Wall,                                   !- Surface Type
  ,                                       !- Construction Name
  {e5f6c95e-e6bb-456c-904f-c29f911cdb52}, !- Space Name
  Surface,                                !- Outside Boundary Condition
  {166dac2e-b393-43d0-8a1c-41a9a243a574}, !- Outside Boundary Condition Object
  NoSun,                                  !- Sun Exposure
  NoWind,                                 !- Wind Exposure
  ,                                       !- View Factor to Ground
  ,                                       !- Number of Vertices
  4, 4, 4,                                !- X,Y,Z Vertex 1 {m}
  4, 4, 0,                                !- X,Y,Z Vertex 2 {m}
  0, 4, 0,                                !- X,Y,Z Vertex 3 {m}
  0, 4, 4;                                !- X,Y,Z Vertex 4 {m}

OS:Surface,
  {e338c5f0-d396-47c2-b5ab-64520fb1ae79}, !- Handle
  Surface 28,                             !- Name
  Wall,                                   !- Surface Type
  ,                                       !- Construction Name
  {e5f6c95e-e6bb-456c-904f-c29f911cdb52}, !- Space Name