
OS:Version,
  {edc0fb33-1bd0-498a-8d7e-d41178cc9a69}, !- Handle
  0.10.0;                                 !- Version Identifier

OS:BuildingStory,
  {bcfbc9f0-0a91-4f99-8192-e3b4afc1da9a}, !- Handle
  Story 1,                                !- Name
  0,                                      !- Nominal Z Coordinate {m}
  4,                                      !- Nominal Floor to Floor Height {m}
  ,                                       !- Default Construction Set Name
  ,                                       !- Default Schedule Set Name
  ;                                       !- Group Rendering Name

OS:Space,
  {b6b7bc27-925e-401a-b4a4-4b7f5436cd07}, !- Handle
  Story 1 West Perimeter Space,           !- Name
  ,                                       !- Space Type Name
  ,                                       !- Default Construction Set Name
  ,                                       !- Default Schedule Set Name
  -0,                                     !- Direction of Relative North {deg}
  0,                                      !- X Origin {m}
  0,                                      !- Y Origin {m}
  0,                                      !- Z Origin {m}
  {bcfbc9f0-0a91-4f99-8192-e3b4afc1da9a}, !- Building Story Name
  {a6ce834a-5d9a-4a13-bf57-8d35e3c74139}; !- Thermal Zone Name

OS:Surface,
  {a376c94e-a719-470f-9fc9-ebbb6e2a6041}, !- Handle
  Surface 1,                              !- Name
  Floor,                                  !- Surface Type
  ,                                       !- Construction Name
  {b6b7bc27-925e-401a-b4a4-4b7f5436cd07}, !- Space Name
  Ground,                                 !- Outside Boundary Condition
  ,                                       !- Outside Boundary Condition Object
  NoSun,                                  !- Sun Exposure
  NoWind,                                 !- Wind Exposure
  ,                                       !- View Factor to Ground
  ,                                       !- Number of Vertices
  0, 0, 0,                                !- X,Y,Z Vertex 1 {m}
  0, 6.70820393249937, 0,                 !- X,Y,Z Vertex 2 {m}
  3, 3.70820393249937, 0,                 !- X,Y,Z Vertex 3 {m}
  3, 3, 0;                                !- X,Y,Z Vertex 4 {m}

OS:Surface,
  {4158cd60-56f7-4481-9757-b1af08d0d4d8}, !- Handle
  Surface 2,                              !- Name
  Wall,                                   !- Surface Type
  ,                                       !- Construction Name
  {b6b7bc27-925e-401a-b4a4-4b7f5436cd07}, !- Space Name
  Outdoors,                               !- Outside Boundary Condition
  ,                                       !- Outside Boundary Condition Object
  SunExposed,                             !- Sun Exposure
  WindExposed,                            !- Wind Exposure
  ,                                       !- View Factor to Ground
  ,                                       !- Number of Vertices
  0, 6.70820393249937, 4,                 !- X,Y,Z Vertex 1 {m}
  0, 6.70820393249937, 0,                 !- X,Y,Z Vertex 2 {m}
  0, 0, 0,                                !- X,Y,Z Vertex 3 {m}
  0, 0, 4;                                !- X,Y,Z Vertex 4 {m}

OS:Surface,
  {32923a49-bffc-48f3-84e0-ea9dbefb9406}, !- Handle
  Surface 3,                              !- Name
  Wall,                                   !- Surface Type
  ,                                       !- Construction Name
  {b6b7bc27-925e-401a-b4a4-4b7f5436cd07}, !- Space Name
  Surface,                                !- Outside Boundary Condition
  {a9eadf8f-0188-43c3-8e00-cdffe653d087}, !- Outside Boundary Condition Object
  NoSun,                                  !- Sun Exposure
  NoWind,                                 !- Wind Exposure
  ,                                       !- View Factor to Ground
  ,                                       !- Number of Vertices
  3, 3.70820393249937, 4,                 !- X,Y,Z Vertex 1 {m}
  3, 3.70820393249937, 0,                 !- X,Y,Z Vertex 2 {m}
  0, 6.70820393249937, 0,                 !- X,Y,Z Vertex 3 {m}
  0, 6.70820393249937, 4;                 !- X,Y,Z Vertex 4 {m}

OS:Surface,
  {11b66692-9921-4b4e-bde3-56d66e6264a2}, !- Handle
  Surface 4,                              !- Name
  Wall,                                   !- Surface Type
  ,                                       !- Construction Name
  {b6b7bc27-925e-401a-b4a4-4b7f5436cd07}, !- Space Name
  Surface,                                !- Outside Boundary Condition
  {40ba70f9-bb73-477b-b107-44f999490114}, !- Outside Boundary Condition Object
  NoSun,                                  !- Sun Exposure
  NoWind,                                 !- Wind Exposure
  ,                                       !- View Factor to Ground
  ,                                       !- Number of Vertices
  3, 3, 4,                                !- X,Y,Z Vertex 1 {m}
  3, 3, 0,                                !- X,Y,Z Vertex 2 {m}
  3, 3.70820393249937, 0,                 !- X,Y,Z Vertex 3 {m}
  3, 3.70820393249937, 4;                 !- X,Y,Z Vertex 4 {m}

OS:Surface,
  {95336a8e-e226-4742-9b26-61f30b658a93}, !- Handle
  Surface 5,                              !- Name
  Wall,                                   !- Surface Type
  ,                                       !- Construction Name
  {b6b7bc27-925e-401a-b4a4-4b7f5436cd07}, !- Space Name
  Surface,                                !- Outside Boundary Condition
  {830a914d-31d0-4a32-9f07-237e2d859ad6}, !- Outside Boundary Condition Object
  NoSun,                                  !- Sun Exposure
  NoWind,                                 !- Wind Exposure
  ,                                       !- View Factor to Ground
  ,                                       !- Number of Vertices
  0, 0, 4,                                !- X,Y,Z Vertex 1 {m}
  0, 0, 0,                                !- X,Y,Z Vertex 2 {m}
  3, 3, 0,                                !- X,Y,Z Vertex 3 {m}
  3, 3, 4;                                !- X,Y,Z Vertex 4 {m}

OS:Surface,
  {370bf777-9d0b-4648-9790-b8d3ab20b376}, !- Handle
  Surface 6,                              !- Name
  RoofCeiling,                            !- Surface Type
  ,                                       !- Construction Name
  {b6b7bc27-925e-401a-b4a4-4b7f5436cd07}, !- Space Name
  Outdoors,                               !- Outside Boundary Condition
  ,                                       !- Outside Boundary Condition Object
  SunExposed,                             !- Sun Exposure
  WindExposed,                            !- Wind Exposure
  ,                                       !- View Factor to Ground
  ,                                       !- Number of Vertices
  3, 3, 4,                                !- X,Y,Z Vertex 1 {m}
  3, 3.70820393249937, 4,                 !- X,Y,Z Vertex 2 {m}
  0, 6.70820393249937, 4,                 !- X,Y,Z Vertex 3 {m}
  0, 0, 4;                                !- X,Y,Z Vertex 4 {m}

OS:Space,
  {1698e6a2-f5f4-40c2-b368-7c4c90c49fb3}, !- Handle
  Story 1 North Perimeter Space,          !- Name
  ,                                       !- Space Type Name
  ,                                       !- Default Construction Set Name
  ,                                       !- Default Schedule Set Name
  -0,                                     !- Direction of Relative North {deg}
  3,                                      !- X Origin {m}
  3.70820393249937,                       !- Y Origin {m}
  0,                                      !- Z Origin {m}
  {bcfbc9f0-0a91-4f99-8192-e3b4afc1da9a}, !- Building Story Name
  {38d7e756-0793-45b3-b3c2-277fed0fadb3}; !- Thermal Zone Name

OS:Surface,
  {19728ff3-13a2-4324-a71a-4711e2b375bc}, !- Handle
  Surface 7,                              !- Name
  Floor,                                  !- Surface Type
  ,                                       !- Construction Name
  {1698e6a2-f5f4-40c2-b368-7c4c90c49fb3}, !- Space Name
  Ground,                                 !- Outside Boundary Condition
  ,                                       !- Outside Boundary Condition Object
  NoSun,                                  !- Sun Exposure
  NoWind,                                 !- Wind Exposure
  ,                                       !- View Factor to Ground
  ,                                       !- Number of Vertices
  -3, 3, 0,                               !- X,Y,Z Vertex 1 {m}
  3.70820393249937, 3, 0,                 !- X,Y,Z Vertex 2 {m}
  0.70820393249937, 4.44089209850063e-16, 0, !- X,Y,Z Vertex 3 {m}
  0, 4.44089209850063e-16, 0;             !- X,Y,Z Vertex 4 {m}

OS:Surface,
  {19811066-a1fb-4b89-8442-05d7983a860e}, !- Handle
  Surface 8,                              !- Name
  Wall,                                   !- Surface Type
  ,                                       !- Construction Name
  {1698e6a2-f5f4-40c2-b368-7c4c90c49fb3}, !- Space Name
  Outdoors,                               !- Outside Boundary Condition
  ,                                       !- Outside Boundary Condition Object
  SunExposed,                             !- Sun Exposure
  WindExposed,                            !- Wind Exposure
  ,                                       !- View Factor to Ground
  ,                                       !- Number of Vertices
  3.70820393249937, 3, 4,                 !- X,Y,Z Vertex 1 {m}
  3.70820393249937, 3, 0,                 !- X,Y,Z Vertex 2 {m}
  -3, 3, 0,                               !- X,Y,Z Vertex 3 {m}
  -3, 3, 4;                               !- X,Y,Z Vertex 4 {m}

OS:Surface,
  {ec17006f-30bc-4ea0-ba8e-9e28295fec0d}, !- Handle
  Surface 9,                              !- Name
  Wall,                                   !- Surface Type
  ,                                       !- Construction Name
  {1698e6a2-f5f4-40c2-b368-7c4c90c49fb3}, !- Space Name
  Surface,                                !- Outside Boundary Condition
  {10f8f765-3301-43bc-bbf7-fd73551ddc72}, !- Outside Boundary Condition Object
  NoSun,                                  !- Sun Exposure
  NoWind,                                 !- Wind Exposure
  ,                                       !- View Factor to Ground
  ,                                       !- Number of Vertices
  0.70820393249937, 4.44089209850063e-16, 4, !- X,Y,Z Vertex 1 {m}
  0.70820393249937, 4.44089209850063e-16, 0, !- X,Y,Z Vertex 2 {m}
  3.70820393249937, 3, 0,                 !- X,Y,Z Vertex 3 {m}
  3.70820393249937, 3, 4;                 !- X,Y,Z Vertex 4 {m}

OS:Surface,
  {fbf8e206-8bff-4f3e-9039-8081dfcfc288}, !- Handle
  Surface 10,                             !- Name
  Wall,                                   !- Surface Type
  ,                                       !- Construction Name
  {1698e6a2-f5f4-40c2-b368-7c4c90c49fb3}, !- Space Name
  Surface,                                !- Outside Boundary Condition
  {d7fe88e3-9bd7-4889-9a8a-55798e2ab1ec}, !- Outside Boundary Condition Object
  NoSun,                                  !- Sun Exposure
  NoWind,                                 !- Wind Exposure
  ,                                       !- View Factor to Ground
  ,                                       !- Number of Vertices
  0, 4.44089209850063e-16, 4,             !- X,Y,Z Vertex 1 {m}
  0, 4.44089209850063e-16, 0,             !- X,Y,Z Vertex 2 {m}
  0.70820393249937, 4.44089209850063e-16, 0, !- X,Y,Z Vertex 3 {m}
  0.70820393249937, 4.44089209850063e-16, 4; !- X,Y,Z Vertex 4 {m}

OS:Surface,
  {a9eadf8f-0188-43c3-8e00-cdffe653d087}, !- Handle
  Surface 11,                             !- Name
  Wall,                                   !- Surface Type
  ,                                       !- Construction Name
  {1698e6a2-f5f4-40c2-b368-7c4c90c49fb3}, !- Space Name
  Surface,                                !- Outside Boundary Condition
  {32923a49-bffc-48f3-84e0-ea9dbefb9406}, !- Outside Boundary Condition Object
  NoSun,                                  !- Sun Exposure
  NoWind,                                 !- Wind Exposure
  ,                                       !- View Factor to Ground
  ,                                       !- Number of Vertices
  -3, 3, 4,                               !- X,Y,Z Vertex 1 {m}
  -3, 3, 0,                               !- X,Y,Z Vertex 2 {m}
  0, 4.44089209850063e-16, 0,             !- X,Y,Z Vertex 3 {m}
  0, 4.44089209850063e-16, 4;             !- X,Y,Z Vertex 4 {m}

OS:Surface,
  {778920d4-959f-4dcf-a4a5-e90e3768431a}, !- Handle
  Surface 12,                             !- Name
  RoofCeiling,                            !- Surface Type
  ,                                       !- Construction Name
  {1698e6a2-f5f4-40c2-b368-7c4c90c49fb3}, !- Space Name
  Outdoors,                               !- Outside Boundary Condition
  ,                                       !- Outside Boundary Condition Object
  SunExposed,                             !- Sun Exposure
  WindExposed,                            !- Wind Exposure
  ,                                       !- View Factor to Ground
  ,                                       !- Number of Vertices
  0, 4.44089209850063e-16, 4,             !- X,Y,Z Vertex 1 {m}
  0.70820393249937, 4.44089209850063e-16, 4, !- X,Y,Z Vertex 2 {m}
  3.70820393249937, 3, 4,                 !- X,Y,Z Vertex 3 {m}
  -3, 3, 4;                               !- X,Y,Z Vertex 4 {m}

OS:Space,
  {c702297c-1a53-4387-8a17-6cfed34edc2c}, !- Handle
  Story 1 East Perimeter Space,           !- Name
  ,                                       !- Space Type Name
  ,                                       !- Default Construction Set Name
  ,                                       !- Default Schedule Set Name
  -0,                                     !- Direction of Relative North {deg}
  3.70820393249937,                       !- X Origin {m}
  3,                                      !- Y Origin {m}
  0,                                      !- Z Origin {m}
  {bcfbc9f0-0a91-4f99-8192-e3b4afc1da9a}, !- Building Story Name
  {2cc074c4-5ac6-42a3-816f-48ea1236db00}; !- Thermal Zone Name

OS:Surface,
  {ed23faf0-b2ee-4762-b8b0-b7b88830b1f0}, !- Handle
  Surface 13,                             !- Name
  Floor,                                  !- Surface Type
  ,                                       !- Construction Name
  {c702297c-1a53-4387-8a17-6cfed34edc2c}, !- Space Name
  Ground,                                 !- Outside Boundary Condition
  ,                                       !- Outside Boundary Condition Object
  NoSun,                                  !- Sun Exposure
  NoWind,                                 !- Wind Exposure
  ,                                       !- View Factor to Ground
  ,                                       !- Number of Vertices
  3, 3.70820393249937, 0,                 !- X,Y,Z Vertex 1 {m}
  3, -3, 0,                               !- X,Y,Z Vertex 2 {m}
  1.33226762955019e-15, 0, 0,             !- X,Y,Z Vertex 3 {m}
  1.33226762955019e-15, 0.70820393249937, 0; !- X,Y,Z Vertex 4 {m}

OS:Surface,
  {0e4a10e2-85ec-454c-81ca-4040cf82ada8}, !- Handle
  Surface 14,                             !- Name
  Wall,                                   !- Surface Type
  ,                                       !- Construction Name
  {c702297c-1a53-4387-8a17-6cfed34edc2c}, !- Space Name
  Outdoors,                               !- Outside Boundary Condition
  ,                                       !- Outside Boundary Condition Object
  SunExposed,                             !- Sun Exposure
  WindExposed,                            !- Wind Exposure
  ,                                       !- View Factor to Ground
  ,                                       !- Number of Vertices
  3, -3, 4,                               !- X,Y,Z Vertex 1 {m}
  3, -3, 0,                               !- X,Y,Z Vertex 2 {m}
  3, 3.70820393249937, 0,                 !- X,Y,Z Vertex 3 {m}
  3, 3.70820393249937, 4;                 !- X,Y,Z Vertex 4 {m}

OS:Surface,
  {2f2755ec-e93f-49ba-926d-e25d0b2ff627}, !- Handle
  Surface 15,                             !- Name
  Wall,                                   !- Surface Type
  ,                                       !- Construction Name
  {c702297c-1a53-4387-8a17-6cfed34edc2c}, !- Space Name
  Surface,                                !- Outside Boundary Condition
  {8f21dbe0-2de3-4b67-a233-16e46b1d4111}, !- Outside Boundary Condition Object
  NoSun,                                  !- Sun Exposure
  NoWind,                                 !- Wind Exposure
  ,                                       !- View Factor to Ground
  ,                                       !- Number of Vertices
  1.33226762955019e-15, 0, 4,             !- X,Y,Z Vertex 1 {m}
  1.33226762955019e-15, 0, 0,             !- X,Y,Z Vertex 2 {m}
  3, -3, 0,                               !- X,Y,Z Vertex 3 {m}
  3, -3, 4;                               !- X,Y,Z Vertex 4 {m}

OS:Surface,
  {0c9d0f05-54e2-4d76-93b1-435a58e3b9fa}, !- Handle
  Surface 16,                             !- Name
  Wall,                                   !- Surface Type
  ,                                       !- Construction Name
  {c702297c-1a53-4387-8a17-6cfed34edc2c}, !- Space Name
  Surface,                                !- Outside Boundary Condition
  {8ebe30e9-0d40-4729-b656-69aef8de1d46}, !- Outside Boundary Condition Object
  NoSun,                                  !- Sun Exposure
  NoWind,                                 !- Wind Exposure
  ,                                       !- View Factor to Ground
  ,                                       !- Number of Vertices
  1.33226762955019e-15, 0.70820393249937, 4, !- X,Y,Z Vertex 1 {m}
  1.33226762955019e-15, 0.70820393249937, 0, !- X,Y,Z Vertex 2 {m}
  1.33226762955019e-15, 0, 0,             !- X,Y,Z Vertex 3 {m}
  1.33226762955019e-15, 0, 4;             !- X,Y,Z Vertex 4 {m}

OS:Surface,
  {10f8f765-3301-43bc-bbf7-fd73551ddc72}, !- Handle
  Surface 17,                             !- Name
  Wall,                                   !- Surface Type
  ,                                       !- Construction Name
  {c702297c-1a53-4387-8a17-6cfed34edc2c}, !- Space Name
  Surface,                                !- Outside Boundary Condition
  {ec17006f-30bc-4ea0-ba8e-9e28295fec0d}, !- Outside Boundary Condition Object
  NoSun,                                  !- Sun Exposure
  NoWind,                                 !- Wind Exposure
  ,                                       !- View Factor to Ground
  ,                                       !- Number of Vertices
  3, 3.70820393249937, 4,                 !- X,Y,Z Vertex 1 {m}
  3, 3.70820393249937, 0,                 !- X,Y,Z Vertex 2 {m}
  1.33226762955019e-15, 0.70820393249937, 0, !- X,Y,Z Vertex 3 {m}
  1.33226762955019e-15, 0.70820393249937, 4; !- X,Y,Z Vertex 4 {m}

OS:Surface,
  {338b5c71-02fa-4ee4-89de-28833e891bd3}, !- Handle
  Surface 18,                             !- Name
  RoofCeiling,                            !- Surface Type
  ,                                       !- Construction Name
  {c702297c-1a53-4387-8a17-6cfed34edc2c}, !- Space Name
  Outdoors,                               !- Outside Boundary Condition
  ,                                       !- Outside Boundary Condition Object
  SunExposed,                             !- Sun Exposure
  WindExposed,                            !- Wind Exposure
  ,                                       !- View Factor to Ground
  ,                                       !- Number of Vertices
  1.33226762955019e-15, 0.70820393249937, 4, !- X,Y,Z Vertex 1 {m}
  1.33226762955019e-15, 0, 4,             !- X,Y,Z Vertex 2 {m}
  3, -3, 4,                               !- X,Y,Z Vertex 3 {m}
  3, 3.70820393249937, 4;                 !- X,Y,Z Vertex 4 {m}

OS:Space,
  {e0da5b79-9795-4255-b7b3-af934345d73c}, !- Handle
  Story 1 South Perimeter Space,          !- Name
  ,                                       !- Space Type Name
  ,                                       !- Default Construction Set Name
  ,                                       !- Default Schedule Set Name
  -0,                                     !- Direction of Relative North {deg}
  0,                                      !- X Origin {m}
  0,                                      !- Y Origin {m}
  0,                                      !- Z Origin {m}
  {bcfbc9f0-0a91-4f99-8192-e3b4afc1da9a}, !- Building Story Name
  {445c8ea1-7ee9-4267-b960-32906b254d68}; !- Thermal Zone Name

OS:Surface,
  {d54aa1a1-be3b-4513-9492-3c9619f780f3}, !- Handle
  Surface 19,                             !- Name
  Floor,                                  !- Surface Type
  ,                                       !- Construction Name
  {e0da5b79-9795-4255-b7b3-af934345d73c}, !- Space Name
  Ground,                                 !- Outside Boundary Condition
  ,                                       !- Outside Boundary Condition Object
  NoSun,                                  !- Sun Exposure
  NoWind,                                 !- Wind Exposure
  ,                                       !- View Factor to Ground
  ,                                       !- Number of Vertices
  6.70820393249937, 0, 0,                 !- X,Y,Z Vertex 1 {m}
  0, 0, 0,                                !- X,Y,Z Vertex 2 {m}
  3, 3, 0,                                !- X,Y,Z Vertex 3 {m}
  3.70820393249937, 3, 0;                 !- X,Y,Z Vertex 4 {m}

OS:Surface,
  {c0bc73d3-faf6-4663-aa1e-5bd19639d606}, !- Handle
  Surface 20,                             !- Name
  Wall,                                   !- Surface Type
  ,                                       !- Construction Name
  {e0da5b79-9795-4255-b7b3-af934345d73c}, !- Space Name
  Outdoors,                               !- Outside Boundary Condition
  ,                                       !- Outside Boundary Condition Object
  SunExposed,                             !- Sun Exposure
  WindExposed,                            !- Wind Exposure
  ,                                       !- View Factor to Ground
  ,                                       !- Number of Vertices
  0, 0, 4,                                !- X,Y,Z Vertex 1 {m}
  0, 0, 0,                                !- X,Y,Z Vertex 2 {m}
  6.70820393249937, 0, 0,                 !- X,Y,Z Vertex 3 {m}
  6.70820393249937, 0, 4;                 !- X,Y,Z Vertex 4 {m}

OS:Surface,
  {830a914d-31d0-4a32-9f07-237e2d859ad6}, !- Handle
  Surface 21,                             !- Name
  Wall,                                   !- Surface Type
  ,                                       !- Construction Name
  {e0da5b79-9795-4255-b7b3-af934345d73c}, !- Space Name
  Surface,                                !- Outside Boundary Condition
  {95336a8e-e226-4742-9b26-61f30b658a93}, !- Outside Boundary Condition Object
  NoSun,                                  !- Sun Exposure
  NoWind,                                 !- Wind Exposure
  ,                                       !- View Factor to Ground
  ,                                       !- Number of Vertices
  3, 3, 4,                                !- X,Y,Z Vertex 1 {m}
  3, 3, 0,                                !- X,Y,Z Vertex 2 {m}
  0, 0, 0,                                !- X,Y,Z Vertex 3 {m}
  0, 0, 4;                                !- X,Y,Z Vertex 4 {m}

OS:Surface,
  {9daaf627-9686-4911-a5b7-2a774d721bac}, !- Handle
  Surface 22,                             !- Name
  Wall,                                   !- Surface Type
  ,                                       !- Construction Name
  {e0da5b79-9795-4255-b7b3-af934345d73c}, !- Space Name
  Surface,                                !- Outside Boundary Condition
  {6332e672-bda2-4e0b-83b5-175e7dc0ca38}, !- Outside Boundary Condition Object
  NoSun,                                  !- Sun Exposure
  NoWind,                                 !- Wind Exposure
  ,                                       !- View Factor to Ground
  ,                                       !- Number of Vertices
  3.70820393249937, 3, 4,                 !- X,Y,Z Vertex 1 {m}
  3.70820393249937, 3, 0,                 !- X,Y,Z Vertex 2 {m}
  3, 3, 0,                                !- X,Y,Z Vertex 3 {m}
  3, 3, 4;                                !- X,Y,Z Vertex 4 {m}

OS:Surface,
  {8f21dbe0-2de3-4b67-a233-16e46b1d4111}, !- Handle
  Surface 23,                             !- Name
  Wall,                                   !- Surface Type
  ,                                       !- Construction Name
  {e0da5b79-9795-4255-b7b3-af934345d73c}, !- Space Name
  Surface,                                !- Outside Boundary Condition
  {2f2755ec-e93f-49ba-926d-e25d0b2ff627}, !- Outside Boundary Condition Object
  NoSun,                                  !- Sun Exposure
  NoWind,                                 !- Wind Exposure
  ,                                       !- View Factor to Ground
  ,                                       !- Number of Vertices
  6.70820393249937, 0, 4,                 !- X,Y,Z Vertex 1 {m}
  6.70820393249937, 0, 0,                 !- X,Y,Z Vertex 2 {m}
  3.70820393249937, 3, 0,                 !- X,Y,Z Vertex 3 {m}
  3.70820393249937, 3, 4;                 !- X,Y,Z Vertex 4 {m}

OS:Surface,
  {c2df7a5b-f169-4fbf-8fbb-ee76ce9b09f6}, !- Handle
  Surface 24,                             !- Name
  RoofCeiling,                            !- Surface Type
  ,                                       !- Construction Name
  {e0da5b79-9795-4255-b7b3-af934345d73c}, !- Space Name
  Outdoors,                               !- Outside Boundary Condition
  ,                                       !- Outside Boundary Condition Object
  SunExposed,                             !- Sun Exposure
  WindExposed,                            !- Wind Exposure
  ,                                       !- View Factor to Ground
  ,                                       !- Number of Vertices
  3.70820393249937, 3, 4,                 !- X,Y,Z Vertex 1 {m}
  3, 3, 4,                                !- X,Y,Z Vertex 2 {m}
  0, 0, 4,                                !- X,Y,Z Vertex 3 {m}
  6.70820393249937, 0, 4;                 !- X,Y,Z Vertex 4 {m}

OS:Space,
  {0bfb9e3c-762e-4435-8471-68ec2a2e5598}, !- Handle
  Story 1 Core Space,                     !- Name
  ,                                       !- Space Type Name
  ,                                       !- Default Construction Set Name
  ,                                       !- Default Schedule Set Name
  -0,                                     !- Direction of Relative North {deg}
  3,                                      !- X Origin {m}
  3,                                      !- Y Origin {m}
  0,                                      !- Z Origin {m}
  {bcfbc9f0-0a91-4f99-8192-e3b4afc1da9a}, !- Building Story Name
  {35df9ef7-5347-4d6e-abfb-25aa607e43e7}; !- Thermal Zone Name

OS:Surface,
  {2407ae11-0d78-4a98-9c36-08c135c1c30c}, !- Handle
  Surface 25,                             !- Name
  Floor,                                  !- Surface Type
  ,                                       !- Construction Name
  {0bfb9e3c-762e-4435-8471-68ec2a2e5598}, !- Space Name
  Ground,                                 !- Outside Boundary Condition
  ,                                       !- Outside Boundary Condition Object
  NoSun,                                  !- Sun Exposure
  NoWind,                                 !- Wind Exposure
  ,                                       !- View Factor to Ground
  ,                                       !- Number of Vertices
  0, 0, 0,                                !- X,Y,Z Vertex 1 {m}
  0, 0.70820393249937, 0,                 !- X,Y,Z Vertex 2 {m}
  0.70820393249937, 0.70820393249937, 0,  !- X,Y,Z Vertex 3 {m}
  0.70820393249937, 0, 0;                 !- X,Y,Z Vertex 4 {m}

OS:Surface,
  {40ba70f9-bb73-477b-b107-44f999490114}, !- Handle
  Surface 26,                             !- Name
  Wall,                                   !- Surface Type
  ,                                       !- Construction Name
  {0bfb9e3c-762e-4435-8471-68ec2a2e5598}, !- Space Name
  Surface,                                !- Outside Boundary Condition
  {11b66692-9921-4b4e-bde3-56d66e6264a2}, !- Outside Boundary Condition Object
  NoSun,                                  !- Sun Exposure
  NoWind,                                 !- Wind Exposure
  ,                                       !- View Factor to Ground
  ,                                       !- Number of Vertices
  0, 0.70820393249937, 4,                 !- X,Y,Z Vertex 1 {m}
  0, 0.70820393249937, 0,                 !- X,Y,Z Vertex 2 {m}
  0, 0, 0,                                !- X,Y,Z Vertex 3 {m}
  0, 0, 4;                                !- X,Y,Z Vertex 4 {m}

OS:Surface,
  {d7fe88e3-9bd7-4889-9a8a-55798e2ab1ec}, !- Handle
  Surface 27,                             !- Name
  Wall,                                   !- Surface Type
  ,                                       !- Construction Name
  {0bfb9e3c-762e-4435-8471-68ec2a2e5598}, !- Space Name
  Surface,                                !- Outside Boundary Condition
  {fbf8e206-8bff-4f3e-9039-8081dfcfc288}, !- Outside Boundary Condition Object
  NoSun,                                  !- Sun Exposure
  NoWind,                                 !- Wind Exposure
  ,                                       !- View Factor to Ground
  ,                                       !- Number of Vertices
  0.70820393249937, 0.70820393249937, 4,  !- X,Y,Z Vertex 1 {m}
  0.70820393249937, 0.70820393249937, 0,  !- X,Y,Z Vertex 2 {m}
  0, 0.70820393249937, 0,                 !- X,Y,Z Vertex 3 {m}
  0, 0.70820393249937, 4;                 !- X,Y,Z Vertex 4 {m}

OS:Surface,
  {8ebe30e9-0d40-4729-b656-69aef8de1d46}, !- Handle
  Surface 28,                             !- Name
  Wall,                                   !- Surface Type
  ,                                       !- Construction Name