
OS:Version,
  {b50b70a3-8f71-4ea5-9b14-1f5c70ab599f}, !- Handle
  0.10.0;                                 !- Version Identifier

OS:Schedule:Ruleset,
  {54a0a2ae-677f-43c3-bfc0-eaa792d3b80c}, !- Handle
  Always_On,                              !- Name
  {c6481955-6709-44db-bbce-81e8cadabd0b}, !- Schedule Type Limits Name
  {c68d2b83-6f8f-4c12-a2e2-d9bdb85fafd1}, !- Default Day Schedule Name
  {f88aab73-5b95-4afc-92e9-56bbb2a8b239}, !- Summer Design Day Schedule Name
  {f5296786-7b4d-426b-9a99-7e6078649c6a}; !- Winter Design Day Schedule Name

OS:Schedule:Day,
  {c68d2b83-6f8f-4c12-a2e2-d9bdb85fafd1}, !- Handle
  Always_On_Default,                      !- Name
  {c6481955-6709-44db-bbce-81e8cadabd0b}, !- Schedule Type Limits Name
  ,                                       !- Interpolate to Timestep
  24,                                     !- Hour 1
  0,                                      !- Minute 1
  1;                                      !- Value Until Time 1

OS:Schedule:Day,
  {f88aab73-5b95-4afc-92e9-56bbb2a8b239}, !- Handle
  Always_On_Summer_Design_Day,            !- Name
  {c6481955-6709-44db-bbce-81e8cadabd0b}, !- Schedule Type Limits Name
  ,                                       !- Interpolate to Timestep
  24,                                     !- Hour 1
  0,                                      !- Minute 1
  1;                                      !- Value Until Time 1

OS:Schedule:Day,
  {f5296786-7b4d-426b-9a99-7e6078649c6a}, !- Handle
  Always_On_Winter_Design_Day,            !- Name
  {c6481955-6709-44db-bbce-81e8cadabd0b}, !- Schedule Type Limits Name
  ,                                       !- Interpolate to Timestep
  24,                                     !- Hour 1
  0,                                      !- Minute 1
  1;                                      !- Value Until Time 1

OS:Schedule:Ruleset,
  {a4cede31-d052-47c6-97bb-64ce85ef8550}, !- Handle
  Deck_Temperature,                       !- Name
  {558a665c-4340-407c-b5a3-6e108bad3967}, !- Schedule Type Limits Name
  {bed3aacd-ccc9-4189-aee3-2cf0d84e9248}, !- Default Day Schedule Name
  {fad5b885-a268-426a-a079-caba8f22c959}, !- Summer Design Day Schedule Name
  {5aa19fc7-d887-4343-bc44-aaf692148947}; !- Winter Design Day Schedule Name

OS:Schedule:Day,
  {bed3aacd-ccc9-4189-aee3-2cf0d84e9248}, !- Handle
  Deck_Temperature_Default,               !- Name
  {558a665c-4340-407c-b5a3-6e108bad3967}, !- Schedule Type Limits Name
  ,                                       !- Interpolate to Timestep
  24,                                     !- Hour 1
  0,                                      !- Minute 1
  12.8;                                   !- Value Until Time 1

OS:Schedule:Day,
  {fad5b885-a268-426a-a079-caba8f22c959}, !- Handle
  Deck_Temperature_Summer_Design_Day,     !- Name
  {558a665c-4340-407c-b5a3-6e108bad3967}, !- Schedule Type Limits Name
  ,                                       !- Interpolate to Timestep
  24,                                     !- Hour 1
  0,                                      !- Minute 1
  12.8;                                   !- Value Until Time 1

OS:Schedule:Day,
  {5aa19fc7-d887-4343-bc44-aaf692148947}, !- Handle
  Deck_Temperature_Winter_Design_Day,     !- Name
  {558a665c-4340-407c-b5a3-6e108bad3967}, !- Schedule Type Limits Name
  ,                                       !- Interpolate to Timestep
  24,                                     !- Hour 1
  0,                                      !- Minute 1
  12.8;                                   !- Value Until Time 1

OS:Schedule:Ruleset,
  {efaacf90-5b58-4d70-beeb-c1a0520ffeb2}, !- Handle
  Hot_Water_Temperature,                  !- Name
  {c5211d31-4590-4942-9a07-1c74cf03558c}, !- Schedule Type Limits Name
  {ae0ce460-ae72-40c7-bbec-53a27c8a361b}, !- Default Day Schedule Name
  {da5f5283-31af-4b79-a3c1-37c61577c304}, !- Summer Design Day Schedule Name
  {ffc4a5ff-3a27-471e-828c-7cfb15e94e45}; !- Winter Design Day Schedule Name

OS:Schedule:Day,
  {ae0ce460-ae72-40c7-bbec-53a27c8a361b}, !- Handle
  Hot_Water_Temperature_Default,          !- Name
  {c5211d31-4590-4942-9a07-1c74cf03558c}, !- Schedule Type Limits Name
  ,                                       !- Interpolate to Timestep
  24,                                     !- Hour 1
  0,                                      !- Minute 1
  67;                                     !- Value Until Time 1

OS:Schedule:Day,
  {da5f5283-31af-4b79-a3c1-37c61577c304}, !- Handle
  Hot_Water_Temperature_Summer_Design_Day, !- Name
  {c5211d31-4590-4942-9a07-1c74cf03558c}, !- Schedule Type Limits Name
  ,                                       !- Interpolate to Timestep
  24,                                     !- Hour 1
  0,                                      !- Minute 1
  67;                                     !- Value Until Time 1

OS:Schedule:Day,
  {ffc4a5ff-3a27-471e-828c-7cfb15e94e45}, !- Handle
  Hot_Water_Temperature_Winter_Design_Day, !- Name
  {c5211d31-4590-4942-9a07-1c74cf03558c}, !- Schedule Type Limits Name
  ,                                       !- Interpolate to Timestep
  24,                                     !- Hour 1
  0,                                      !- Minute 1
  67;                                     !- Value Until Time 1

OS:Schedule:Ruleset,
  {ea510fd5-6cf1-469c-bdf8-262cbe75c91e}, !- Handle
  Chilled_Water_Temperature,              !- Name
  ,                                       !- Schedule Type Limits Name
  {f0c4b316-214d-468f-b54c-83785e9de866}, !- Default Day Schedule Name
  {fe7b4ce8-cc72-4484-bf34-74ce7063f516}, !- Summer Design Day Schedule Name
  {563675de-9ca7-4b23-a23f-39ee8270bdb6}; !- Winter Design Day Schedule Name

OS:Schedule:Day,
  {f0c4b316-214d-468f-b54c-83785e9de866}, !- Handle
  Chilled_Water_Temperature_Default,      !- Name
  ,                                       !- Schedule Type Limits Name
  ,                                       !- Interpolate to Timestep
  24,                                     !- Hour 1
  0,                                      !- Minute 1
  6.7;                                    !- Value Until Time 1

OS:Schedule:Day,
  {fe7b4ce8-cc72-4484-bf34-74ce7063f516}, !- Handle
  Chilled_Water_Temperature_Summer_Design_Day, !- Name
  ,                                       !- Schedule Type Limits Name
  ,                                       !- Interpolate to Timestep
  24,                                     !- Hour 1
  0,                                      !- Minute 1
  6.7;                                    !- Value Until Time 1

OS:Schedule:Day,
  {563675de-9ca7-4b23-a23f-39ee8270bdb6}, !- Handle
  Chilled_Water_Temperature_Winter_Design_Day, !- Name
  ,                                       !- Schedule Type Limits Name
  ,                                       !- Interpolate to Timestep
  24,                                     !- Hour 1
  0,                                      !- Minute 1
  6.7;                                    !- Value Until Time 1

OS:AirLoopHVAC,
  {2cb41430-c002-4e66-809b-68da8293948a}, !- Handle
  Air Loop HVAC 1,                        !- Name
  ,                                       !- Controller List Name
  ,                                       !- Availability Manager List Name
  AutoSize,                               !- Design Supply Air Flow Rate {m3/s}
  ,                                       !- Branch List Name
  ,                                       !- Connector List Name
  {47047a62-f663-401c-a994-0ad1bb867812}, !- Supply Side Inlet Node Name
  {fa093c3a-2d89-41ac-b19e-24ca79bbeaa8}, !- Demand Side Outlet Node Name
  {3a164cd8-2dab-41f6-b260-20b26a5a8f43}, !- Demand Side Inlet Node Names
  {2d735306-9215-42b0-b8da-b8d63e7c45d0}; !- Supply Side Outlet Node Names

OS:Node,
  {65081c31-ca6d-4038-8cdc-2077263fcb32}, !- Handle
  Node 1,                                 !- Name
  {47047a62-f663-401c-a994-0ad1bb867812}, !- Inlet Port
  {ddfccd04-b3b8-43aa-a758-1851c1a81eed}; !- Outlet Port

OS:Node,
  {e8ee5580-9d8c-4537-a635-e38c0302d132}, !- Handle
  Node 2,                                 !- Name
  {2f923b6c-4b8a-4308-a978-52645ce2ce1e}, !- Inlet Port
  {2d735306-9215-42b0-b8da-b8d63e7c45d0}; !- Outlet Port

OS:Connection,
  {47047a62-f663-401c-a994-0ad1bb867812}, !- Handle
  Connection 1,                           !- Name
  {2cb41430-c002-4e66-809b-68da8293948a}, !- Source Object
  7,                                      !- Outlet Port
  {65081c31-ca6d-4038-8cdc-2077263fcb32}, !- Target Object
  2;                                      !- Inlet Port

OS:Connection,
  {2d735306-9215-42b0-b8da-b8d63e7c45d0}, !- Handle
  Connection 3,                           !- Name
  {e8ee5580-9d8c-4537-a635-e38c0302d132}, !- Source Object
  3,                                      !- Outlet Port
  {2cb41430-c002-4e66-809b-68da8293948a}, !- Target Object
  10;                                     !- Inlet Port

OS:Node,
  {b673e5f9-c280-4581-add8-d73a0454c72d}, !- Handle
  Node 3,                                 !- Name
  {3a164cd8-2dab-41f6-b260-20b26a5a8f43}, !- Inlet Port
  {d18cd9bd-299c-4cde-b885-596409a1f867}; !- Outlet Port

OS:Node,
  {da42fb04-4085-40c0-bd26-da61ab31288f}, !- Handle
  Node 4,                                 !- Name
  {184ddae2-3851-42c9-bdfb-632f01b88618}, !- Inlet Port
  {fa093c3a-2d89-41ac-b19e-24ca79bbeaa8}; !- Outlet Port

OS:Node,
  {267327d8-4a98-47c3-9a2a-40c0e868f894}, !- Handle
  Node 5,                                 !- Name
  {5d8c315c-b5a5-4fd8-a2d7-d4c913cca213}, !- Inlet Port
  {bdd66e42-941f-441c-a796-a783e742a540}; !- Outlet Port

OS:Connection,
  {3a164cd8-2dab-41f6-b260-20b26a5a8f43}, !- Handle
  Connection 4,                           !- Name
  {2cb41430-c002-4e66-809b-68da8293948a}, !- Source Object
  9,                                      !- Outlet Port
  {b673e5f9-c280-4581-add8-d73a0454c72d}, !- Target Object
  2;                                      !- Inlet Port

OS:Connection,
  {fa093c3a-2d89-41ac-b19e-24ca79bbeaa8}, !- Handle
  Connection 5,                           !- Name
  {da42fb04-4085-40c0-bd26-da61ab31288f}, !- Source Object
  3,                                      !- Outlet Port
  {2cb41430-c002-4e66-809b-68da8293948a}, !- Target Object
  8;                                      !- Inlet Port

OS:AirLoopHVAC:ZoneSplitter,
  {7906c036-54ec-47b0-91ee-22e59e8084cb}, !- Handle
  Air Loop HVAC Zone Splitter 1,          !- Name
  {d18cd9bd-299c-4cde-b885-596409a1f867}, !- Inlet Node Name
  {b984255f-f3f4-4907-8c9b-d06cde5b4195}; !- Outlet Node Name 1

OS:AirLoopHVAC:ZoneMixer,
  {1066b3d3-6d8a-46f9-b514-ee5b8bfab77a}, !- Handle
  Air Loop HVAC Zone Mixer 1,             !- Name
  {184ddae2-3851-42c9-bdfb-632f01b88618}, !- Outlet Node Name
  {bdd66e42-941f-441c-a796-a783e742a540}; !- Inlet Node Name 1

OS:Connection,
  {d18cd9bd-299c-4cde-b885-596409a1f867}, !- Handle
  Connection 6,                           !- Name
  {b673e5f9-c280-4581-add8-d73a0454c72d}, !- Source Object
  3,                                      !- Outlet Port
  {7906c036-54ec-47b0-91ee-22e59e8084cb}, !- Target Object
  2;                                      !- Inlet Port

OS:Connection,
  {bdd66e42-941f-441c-a796-a783e742a540}, !- Handle
  Connection 8,                           !- Name
  {267327d8-4a98-47c3-9a2a-40c0e868f894}, !- Source Object
  3,                                      !- Outlet Port
  {1066b3d3-6d8a-46f9-b514-ee5b8bfab77a}, !- Target Object
  3;                                      !- Inlet Port

OS:Connection,
  {184ddae2-3851-42c9-bdfb-632f01b88618}, !- Handle
  Connection 9,                           !- Name
  {1066b3d3-6d8a-46f9-b514-ee5b8bfab77a}, !- Source Object
  2,                                      !- Outlet Port
  {da42fb04-4085-40c0-bd26-da61ab31288f}, !- Target Object
  2;                                      !- Inlet Port

OS:Sizing:System,
  {9de1b6d1-5502-4556-828f-11c5dff0051d}, !- Handle
  {2cb41430-c002-4e66-809b-68da8293948a}, !- AirLoop Name
  Sensible,                               !- Type of Load to Size On
  Autosize,                               !- Design Outdoor Air Flow Rate {m3/s}
  0.3,                                    !- Minimum System Air Flow Ratio
  7,                                      !- Preheat Design Temperature {C}
  0.008,                                  !- Preheat Design Humidity Ratio {kg-H2O/kg-Air}
  12.8,                                   !- Precool Design Temperature {C}
  0.008,                                  !- Precool Design Humidity Ratio {kg-H2O/kg-Air}
  12.8,                                   !- Central Cooling Design Supply Air Temperature {C}
  12.8,                                   !- Central Heating Design Supply Air Temperature {C}
  NonCoincident,                          !- Sizing Option
  Yes,                                    !- 100% Outdoor Air in Cooling
  Yes,                                    !- 100% Outdoor Air in Heating
  0.0085,                                 !- Central Cooling Design Supply Air Humidity Ratio {kg-H2O/kg-Air}
  0.008,                                  !- Central Heating Design Supply Air Humidity Ratio {kg-H2O/kg-Air}
  DesignDay,                              !- Cooling Design Air Flow Method
  0,                                      !- Cooling Design Air Flow Rate {m3/s}
  DesignDay,                              !- Heating Design Air Flow Method
  0,                                      !- Heating Design Air Flow Rate {m3/s}
  ZoneSum;                                !- System Outdoor Air Method

OS:Fan:VariableVolume,
  {8c58add9-5ea4-4498-afdd-e95063c2f6b1}, !- Handle
  Fan Variable Volume 1,                  !- Name
  {54a0a2ae-677f-43c3-bfc0-eaa792d3b80c}, !- Availability Schedule Name
  0.5,                                    !- Fan Efficiency
  500,                                    !- Pressure Rise {Pa}
  Autosize,                               !- Maximum Flow Rate {m3/s}
  FixedFlowRate,                          !- Fan Power Minimum Flow Rate Input Method
  0,                                      !- Fan Power Minimum Flow Fraction
  0,                                      !- Fan Power Minimum Air Flow Rate {m3/s}
  0.93,                                   !- Motor Efficiency
  1,                                      !- Motor In Airstream Fraction
  0.040759894,                            !- Fan Power Coefficient 1
  0.08804497,                             !- Fan Power Coefficient 2
  -0.07292612,                            !- Fan Power Coefficient 3
  0.943739823,                            !- Fan Power Coefficient 4
  0,                                      !- Fan Power Coefficient 5
  {366bb4e0-5f4c-4e98-ae0c-1b2d9ec4efb4}, !- Air Inlet Node Name
  {2f923b6c-4b8a-4308-a978-52645ce2ce1e}, !- Air Outlet Node Name
  ;                                       !- End-Use Subcategory

OS:ScheduleTypeLimits,
  {c6481955-6709-44db-bbce-81e8cadabd0b}, !- Handle
  OnOff,                                  !- Name
  0,                                      !- Lower Limit Value {BasedOnField A4}
  1,                                      !- Upper Limit Value {BasedOnField A4}
  Discrete,                               !- Numeric Type
  Availability;                           !- Unit Type

OS:Coil:Heating:Water,
  {d006199c-00a0-4857-890c-4d7543ecd7e8}, !- Handle
  Coil Heating Water 1,                   !- Name
  {54a0a2ae-677f-43c3-bfc0-eaa792d3b80c}, !- Availability Schedule Name
  ,                                       !- U-Factor Times Area Value {W/K}
  ,                                       !- Maximum Water Flow Rate {m3/s}
  {6d1eb533-fe79-4c9d-ae36-7b6c52b08c9b}, !- Water Inlet Node Name
  {38ca7da7-82b6-4714-87af-2fa3c2eba93d}, !- Water Outlet Node Name
  {082323d4-855e-4fa9-9361-40b4073716f6}, !- Air Inlet Node Name
  {e5ea3992-c6e4-4b36-8614-2cde8f863ece}, !- Air Outlet Node Name
  ,                                       !- Performance Input Method
  ,                                       !- Rated Capacity {W}
  ,                                       !- Rated Inlet Water Temperature {C}
  ,                                       !- Rated Inlet Air Temperature {C}
  ,                                       !- Rated Outlet Water Temperature {C}
  ,                                       !- Rated Outlet Air Temperature {C}
  ;                                       !- Rated Ratio for Air and Water Convection

OS:Curve:Biquadratic,
  {431ee1a9-5254-4160-ac25-6dc6a600b934}, !- Handle
  Curve Biquadratic 1,                    !- Name
  0.42415,                                !- Coefficient1 Constant
  0.04426,                                !- Coefficient2 x
  -0.00042,                               !- Coefficient3 x**2
  0.00333,                                !- Coefficient4 y
  -8e-05,                                 !- Coefficient5 y**2
  -0.00021,                               !- Coefficient6 x*y
  17,                                     !- Minimum Value of x {BasedOnField A2}
  22,                                     !- Maximum Value of x {BasedOnField A2}
  13,                                     !- Minimum Value of y {BasedOnField A3}
  46;                                     !- Maximum Value of y {BasedOnField A3}

OS:Curve:Quadratic,
  {00932d83-874f-4f3f-9d3f-14472dbb4569}, !- Handle
  Curve Quadratic 1,                      !- Name
  0.77136,                                !- Coefficient1 Constant
  0.34053,                                !- Coefficient2 x
  -0.11088,                               !- Coefficient3 x**2
  0.75918,                                !- Minimum Value of x {BasedOnField A2}
  1.13877;                                !- Maximum Value of x {BasedOnField A2}

OS:Curve:Biquadratic,
  {ec2b53ca-6599-4a7e-a760-33710b94f3fd}, !- Handle
  Curve Biquadratic 2,                    !- Name
  1.23649,                                !- Coefficient1 Constant
  -0.02431,                               !- Coefficient2 x
  0.00057,                                !- Coefficient3 x**2
  -0.01434,                               !- Coefficient4 y
  0.00063,                                !- Coefficient5 y**2
  -0.00038,                               !- Coefficient6 x*y
  17,                                     !- Minimum Value of x {BasedOnField A2}
  22,                                     !- Maximum Value of x {BasedOnField A2}
  13,                                     !- Minimum Value of y {BasedOnField A3}
  46;                                     !- Maximum Value of y {BasedOnField A3}

OS:Curve:Quadratic,
  {f1b70374-11d7-4e8a-a8a9-9eac29a48abc}, !- Handle
  Curve Quadratic 2,                      !- Name
  1.2055,                                 !- Coefficient1 Constant
  -0.32953,                               !- Coefficient2 x
  0.12308,                                !- Coefficient3 x**2
  0.75918,                                !- Minimum Value of x {BasedOnField A2}
  1.13877;                                !- Maximum Value of x {BasedOnField A2}

OS:Curve:Quadratic,
  {46966b7c-57b7-4b16-bb33-3fe8ed660838}, !- Handle
  Curve Quadratic 3,                      !- Name
  0.771,                                  !- Coefficient1 Constant
  0.229,                                  !- Coefficient2 x
  0,                                      !- Coefficient3 x**2
  0,                                      !- Minimum Value of x {BasedOnField A2}
  1;                                      !- Maximum Value of x {BasedOnField A2}

OS:Curve:Biquadratic,
  {8d897e71-5e47-45bd-b534-07892ffa38b3}, !- Handle
  Curve Biquadratic 3,                    !- Name
  0,                                      !- Coefficient1 Constant
  0,                                      !- Coefficient2 x
  0,                                      !- Coefficient3 x**2
  0,                                      !- Coefficient4 y
  0,                                      !- Coefficient5 y**2
  0,                                      !- Coefficient6 x*y
  0,                                      !- Minimum Value of x {BasedOnField A2}
  1,                                      !- Maximum Value of x {BasedOnField A2}
  0,                                      !- Minimum Value of y {BasedOnField A3}
  1;                                      !- Maximum Value of y {BasedOnField A3}

OS:Curve:Biquadratic,
  {13e878d0-564e-4ce5-8b56-b2ea34f29bb3}, !- Handle
  Curve Biquadratic 4,                    !- Name
  0,                                      !- Coefficient1 Constant
  0,                                      !- Coefficient2 x
  0,                                      !- Coefficient3 x**2
  0,                                      !- Coefficient4 y
  0,                                      !- Coefficient5 y**2
  0,                                      !- Coefficient6 x*y
  0,                                      !- Minimum Value of x {BasedOnField A2}
  1,                                      !- Maximum Value of x {BasedOnField A2}
  0,                                      !- Minimum Value of y {BasedOnField A3}
  1;                                      !- Maximum Value of y {BasedOnField A3}

OS:Coil:Cooling:DX:TwoSpeed,
  {33e53129-8594-4eae-a880-3b195cb38f45}, !- Handle
  Coil Cooling DX Two Speed 1,            !- Name
  {54a0a2ae-677f-43c3-bfc0-eaa792d3b80c}, !- Availability Schedule Name
  Autosize,                               !- Rated High Speed Total Cooling Capacity {W}
  Autosize,                               !- Rated High Speed Sensible Heat Ratio
  5.5,                                    !- Rated High Speed COP {W/W}
  Autosize,                               !- Rated High Speed Air Flow Rate {m3/s}
  {e3f66446-6635-4398-9ee1-6affb6f225ba}, !- Air Inlet Node Name
  {773673f2-8e72-49ea-b07a-988f9bc3c1f8}, !- Air Outlet Node Name
  {431ee1a9-5254-4160-ac25-6dc6a600b934}, !- Total Cooling Capacity Function of Temperature Curve Name
  {00932d83-874f-4f3f-9d3f-14472dbb4569}, !- Total Cooling Capacity Function of Flow Fraction Curve Name
  {ec2b53ca-6599-4a7e-a760-33710b94f3fd}, !- Energy Input Ratio Function of Temperature Curve Name
  {f1b70374-11d7-4e8a-a8a9-9eac29a48abc}, !- Energy Input Ratio Function of Flow Fraction Curve Name
  {46966b7c-57b7-4b16-bb33-3fe8ed660838}, !- Part Load Fraction Correlation Curve Name
  Autosize,                               !- Rated Low Speed Total Cooling Capacity {W}
  0.69,                                   !- Rated Low Speed Sensible Heat Ratio
  6.6,                                    !- Rated Low Speed COP {W/W}
  ,                                       !- Rated Low Speed Air Flow Rate {m3/s}
  {8d897e71-5e47-45bd-b534-07892ffa38b3}, !- Low Speed Total Cooling Capacity Function of Temperature Curve Name
  {13e878d0-564e-4ce5-8b56-b2ea34f29bb3}, !- Low Speed Energy Input Ratio Function of Temperature Curve Name
  ,                                       !- Condenser Air Inlet Node Name
  AirCooled,                              !- Condenser Type
  0,                                      !- High Speed Evaporative Condenser Effectiveness {dimensionless}
  Autosize,                               !- High Speed Evaporative Condenser Air Flow Rate {m3/s}
  Autosize,                               !- High Speed Evaporative Condenser Pump Rated Power Consumption {W}
  0,                                      !- Low Speed Evaporative Condenser Effectiveness {dimensionless}
  Autosize,                               !- Low Speed Evaporative Condenser Air Flow Rate {m3/s}
  Autosize,                               !- Low Speed Evaporative Condenser Pump Rated Power Consumption {W}
  ,                                       !- Supply Water Storage Tank Name
  ,                                       !- Condensate Collection Water Storage Tank Name
  10,                                     !- Basin Heater Capacity {W/K}
  2,                                      !- Basin Heater Setpoint Temperature {C}
  ;                                       !- Basin Heater Operating Schedule Name

OS:SetpointManager:MixedAir,
  {c492af0c-d5db-41bd-a69c-2c5cf73e7022}, !- Handle
  Setpoint Manager Mixed Air 1,           !- Name
  ,                                       !- Control Variable
  {e8ee5580-9d8c-4537-a635-e38c0302d132}, !- Reference Setpoint Node Name
  {edad8c16-f80c-4880-9f0e-bdffca549983}, !- Fan Inlet Node Name
  {e8ee5580-9d8c-4537-a635-e38c0302d132}, !- Fan Outlet Node Name
  {edad8c16-f80c-4880-9f0e-bdffca549983}; !- Setpoint Node or NodeList Name

OS:SetpointManager:MixedAir,
  {49bff346-e5e5-42a2-b61e-e7428e8eac3a}, !- Handle
  Setpoint Manager Mixed Air 2,           !- Name
  ,                                       !- Control Variable
  {e8ee5580-9d8c-4537-a635-e38c0302d132}, !- Reference Setpoint Node Name
  {edad8c16-f80c-4880-9f0e-bdffca549983}, !- Fan Inlet Node Name
  {e8ee5580-9d8c-4537-a635-e38c0302d132}, !- Fan Outlet Node Name
  {d0a64746-5d84-47a2-b3da-b93051c497df}; !- Setpoint Node or NodeList Name

OS:SetpointManager:MixedAir,
  {49d34cd7-77b6-405d-b7b4-b4275e0c2bd2}, !- Handle
  Setpoint Manager Mixed Air 3,           !- Name
  ,                                       !- Control Variable
  {e8ee5580-9d8c-4537-a635-e38c0302d132}, !- Reference Setpoint Node Name
  {edad8c16-f80c-4880-9f0e-bdffca549983}, !- Fan Inlet Node Name
  {e8ee5580-9d8c-4537-a635-e38c0302d132}, !- Fan Outlet Node Name
  {55ab9b74-c111-4379-9b0a-aaf562d5c9ea}; !- Setpoint Node or NodeList Name

OS:SetpointManager:Scheduled,
  {0f8b686f-e8ef-4235-b2a8-4807e248ce87}, !- Handle
  Setpoint Manager Scheduled 1,           !- Name
  Temperature,                            !- Control Variable
  {a4cede31-d052-47c6-97bb-64ce85ef8550}, !- Schedule Name
  {e8ee5580-9d8c-4537-a635-e38c0302d132}; !- Setpoint Node or NodeList Name

OS:ScheduleTypeLimits,
  {558a665c-4340-407c-b5a3-6e108bad3967}, !- Handle
  Temperature,                            !- Name
  ,                                       !- Lower Limit Value {BasedOnField A4}
  ,                                       !- Upper Limit Value {BasedOnField A4}
  Continuous,                             !- Numeric Type
  Temperature;                            !- Unit Type

OS:Controller:OutdoorAir,
  {92c75745-bc42-4d04-8b00-ec9f7ffddb85}, !- Handle
  Controller Outdoor Air 1,               !- Name
  ,                                       !- Relief Air Outlet Node Name
  ,                                       !- Return Air Node Name
  ,                                       !- Mixed Air Node Name
  ,                                       !- Actuator Node Name
  Autosize,                               !- Minimum Outdoor Air Flow Rate {m3/s}
  Autosize,                               !- Maximum Outdoor Air Flow Rate {m3/s}
  FixedDryBulb,                           !- Economizer Control Type
  ModulateFlow,                           !- Economizer Control Action Type
  30,                                     !- Economizer Maximum Limit Dry-Bulb Temperature {C}
  64000,                                  !- Economizer Maximum Limit Enthalpy {J/kg}
  ,                                       !- Economizer Maximum Limit Dewpoint Temperature {C}
  ,                                       !- Electronic Enthalpy Limit Curve Name
  -100,                                   !- Economizer Minimum Limit Dry-Bulb Temperature {C}
  NoLockout,                              !- Lockout Type
  FixedMinimum,                           !- Minimum Limit Type
  ,                                       !- Minimum Outdoor Air Schedule Name
  ,                                       !- Minimum Fraction of Outdoor Air Schedule Name
  ,                                       !- Maximum Fraction of Outdoor Air Schedule Name
  ,                                       !- Mechanical Ventilation Controller Name
  ,                                       !- Time of Day Economizer Control Schedule Name
  No,                                     !- High Humidity Control
  ,                                       !- Humidistat Control Zone Name
  ,                                       !- High Humidity Outdoor Air Flow Ratio
  ,                                       !- Control High Indoor Humidity Based on Outdoor Humidity Ratio
  BypassWhenOAFlowGreaterThanMinimum;     !- Heat Recovery Bypass Control Type

OS:AirLoopHVAC:OutdoorAirSystem,
  {8cfce7ab-ccf9-4d73-bacd-b98f9a930699}, !- Handle
  Air Loop HVAC Outdoor Air System 1,     !- Name
  {92c75745-bc42-4d04-8b00-ec9f7ffddb85}, !- Controller Name
  ,                                       !- Outdoor Air Equipment List Name
  ,                                       !- Availability Manager List Name
  {fe6c7735-109f-496e-9a12-f38d75cced88}, !- Mixed Air Node Name
  {33343fcf-ce6d-49c0-93c9-a79b3e6776e1}, !- Outdoor Air Stream Node Name
  {0d648225-bc8e-4370-8773-52499af104da}, !- Relief Air Stream Node Name
  {ddfccd04-b3b8-43aa-a758-1851c1a81eed}; !- Return Air Stream Node Name

OS:Node,
  {085da7fa-09d5-4965-a8bb-4e30f3ddbec1}, !- Handle
  Node 6,                                 !- Name
  ,                                       !- Inlet Port
  {33343fcf-ce6d-49c0-93c9-a79b3e6776e1}; !- Outlet Port

OS:Connection,
  {33343fcf-ce6d-49c0-93c9-a79b3e6776e1}, !- Handle
  Connection 10,                          !- Name
  {085da7fa-09d5-4965-a8bb-4e30f3ddbec1}, !- Source Object
  3,                                      !- Outlet Port
  {8cfce7ab-ccf9-4d73-bacd-b98f9a930699}, !- Target Object
  6;                                      !- Inlet Port

OS:Node,
  {f9f12519-1c9c-4f3b-ac54-bd4dee721741}, !- Handle
  Node 7,                                 !- Name
  {0d648225-bc8e-4370-8773-52499af104da}, !- Inlet Port
  ;                                       !- Outlet Port

OS:Connection,
  {0d648225-bc8e-4370-8773-52499af104da}, !- Handle
  Connection 11,                          !- Name
  {8cfce7ab-ccf9-4d73-bacd-b98f9a930699}, !- Source Object
  7,                                      !- Outlet Port